data_Al-scu-1x1x1_gopt-pos-1_st439.xyz
_audit_creation_date              2017-04-11
_audit_creation_method            'Materials Studio'
_symmetry_space_group_name_H-M    'P1'
_symmetry_Int_Tables_number       1
_symmetry_cell_setting            triclinic
loop_
_symmetry_equiv_pos_as_xyz
  x,y,z
_cell_length_a                    7.6440
_cell_length_b                    31.9300
_cell_length_c                    32.9860
_cell_angle_alpha                 90.0000
_cell_angle_beta                  90.0000
_cell_angle_gamma                 90.0000
loop_
_atom_site_label
_atom_site_type_symbol
_atom_site_fract_x
_atom_site_fract_y
_atom_site_fract_z
_atom_site_U_iso_or_equiv
_atom_site_adp_type
_atom_site_occupancy
Al1    Al    0.51959   0.09571   0.15954   0.00000  Uiso   1.00
O2     O     0.55817   0.03796   0.16214   0.00000  Uiso   1.00
O3     O     0.43302   0.10069   0.21222   0.00000  Uiso   1.00
O4     O     0.42524   0.18533   0.21239   0.00000  Uiso   1.00
O5     O     0.48342   0.15414   0.15223   0.00000  Uiso   1.00
C6     C     0.41826   0.18314   0.17397   0.00000  Uiso   1.00
C7     C     0.32426   0.21711   0.15203   0.00000  Uiso   1.00
C8     C     0.31677   0.21651   0.10963   0.00000  Uiso   1.00
H9     H     0.38303   0.19110   0.09388   0.00000  Uiso   1.00
C10    C     0.23735   0.21198   0.02026   0.00000  Uiso   1.00
H11    H     0.22456   0.18181   0.03546   0.00000  Uiso   1.00
O12    O     0.60791   0.09967   0.10647   0.00000  Uiso   1.00
O13    O     0.56719   0.03599   0.07762   0.00000  Uiso   1.00
C14    C     0.60672   0.07464   0.07659   0.00000  Uiso   1.00
C15    C     0.64860   0.09445   0.03693   0.00000  Uiso   1.00
C16    C     0.69187   0.13707   0.03702   0.00000  Uiso   1.00
H17    H     0.70730   0.15236   0.06626   0.00000  Uiso   1.00
O18    O     0.23228   0.10590   0.32405   0.00000  Uiso   1.00
O19    O     0.26040   0.14824   0.26987   0.00000  Uiso   1.00
C20    C     0.17566   0.13442   0.30018   0.00000  Uiso   1.00
C21    C     0.00191   0.15397   0.30957   0.00000  Uiso   1.00
H22    H     0.93704   0.16596   0.28242   0.00000  Uiso   1.00
H23    H     0.91562   0.13239   0.32583   0.00000  Uiso   1.00
H24    H     0.02795   0.18071   0.32978   0.00000  Uiso   1.00
O25    O     0.26541   0.01963   0.11818   0.00000  Uiso   1.00
O26    O     0.28552   0.08736   0.13789   0.00000  Uiso   1.00
C27    C     0.20493   0.05690   0.12139   0.00000  Uiso   1.00
C28    C     0.02849   0.06531   0.10327   0.00000  Uiso   1.00
H29    H     0.95297   0.03638   0.09995   0.00000  Uiso   1.00
H30    H     0.95498   0.08824   0.12112   0.00000  Uiso   1.00
H31    H     0.04927   0.07863   0.07286   0.00000  Uiso   1.00
H32    H     0.39293   0.07492   0.22446   0.00000  Uiso   1.00
H33    H     0.67337   0.03201   0.17292   0.00000  Uiso   1.00
Al34   Al    0.02217   0.59518   0.15997   0.00000  Uiso   1.00
O35    O     0.05853   0.53748   0.16159   0.00000  Uiso   1.00
O36    O     0.94008   0.59973   0.21374   0.00000  Uiso   1.00
O37    O     0.93221   0.68561   0.21236   0.00000  Uiso   1.00
O38    O     0.98605   0.65410   0.15204   0.00000  Uiso   1.00
C39    C     0.92354   0.68336   0.17395   0.00000  Uiso   1.00
C40    C     0.82970   0.71754   0.15204   0.00000  Uiso   1.00
C41    C     0.82149   0.71692   0.10961   0.00000  Uiso   1.00
H42    H     0.88722   0.69142   0.09384   0.00000  Uiso   1.00
C43    C     0.73977   0.71213   0.02017   0.00000  Uiso   1.00
H44    H     0.72797   0.68198   0.03548   0.00000  Uiso   1.00
O45    O     0.10728   0.59836   0.10642   0.00000  Uiso   1.00
O46    O     0.06663   0.53540   0.07623   0.00000  Uiso   1.00
C47    C     0.10556   0.57407   0.07599   0.00000  Uiso   1.00
C48    C     0.14757   0.59443   0.03662   0.00000  Uiso   1.00
C49    C     0.19078   0.63703   0.03698   0.00000  Uiso   1.00
H50    H     0.20655   0.65212   0.06633   0.00000  Uiso   1.00
O51    O     0.73416   0.60629   0.32390   0.00000  Uiso   1.00
O52    O     0.76464   0.64811   0.26920   0.00000  Uiso   1.00
C53    C     0.67858   0.63442   0.29959   0.00000  Uiso   1.00
C54    C     0.50409   0.65371   0.30844   0.00000  Uiso   1.00
H55    H     0.44409   0.66754   0.28152   0.00000  Uiso   1.00
H56    H     0.41487   0.63112   0.32246   0.00000  Uiso   1.00
H57    H     0.52696   0.67891   0.33061   0.00000  Uiso   1.00
O58    O     0.76646   0.52070   0.11792   0.00000  Uiso   1.00
O59    O     0.78444   0.58755   0.14024   0.00000  Uiso   1.00
C60    C     0.70473   0.55748   0.12244   0.00000  Uiso   1.00
C61    C     0.52807   0.56621   0.10461   0.00000  Uiso   1.00
H62    H     0.45649   0.53710   0.09896   0.00000  Uiso   1.00
H63    H     0.45063   0.58706   0.12390   0.00000  Uiso   1.00
H64    H     0.54838   0.58220   0.07542   0.00000  Uiso   1.00
H65    H     0.81710   0.59270   0.21579   0.00000  Uiso   1.00
H66    H     1.16604   0.52995   0.17525   0.00000  Uiso   1.00
Al67   Al    0.47156   0.90317   0.16019   0.00000  Uiso   1.00
O68    O     0.43350   0.96061   0.16161   0.00000  Uiso   1.00
O69    O     0.55846   0.90016   0.21363   0.00000  Uiso   1.00
O70    O     0.57472   0.81440   0.21383   0.00000  Uiso   1.00
O71    O     0.50077   0.84399   0.15384   0.00000  Uiso   1.00
C72    C     0.57041   0.81535   0.17533   0.00000  Uiso   1.00
C73    C     0.65560   0.78038   0.15272   0.00000  Uiso   1.00
C74    C     0.65119   0.78015   0.11024   0.00000  Uiso   1.00
H75    H     0.58018   0.80511   0.09491   0.00000  Uiso   1.00
C76    C     0.74882   0.78739   0.02181   0.00000  Uiso   1.00
H77    H     0.75232   0.81680   0.03860   0.00000  Uiso   1.00
O78    O     0.39138   0.89971   0.10625   0.00000  Uiso   1.00
O79    O     0.44145   0.96256   0.07642   0.00000  Uiso   1.00
C80    C     0.39855   0.92413   0.07593   0.00000  Uiso   1.00
C81    C     0.35727   0.90433   0.03629   0.00000  Uiso   1.00
C82    C     0.31810   0.86156   0.03609   0.00000  Uiso   1.00
H83    H     0.31564   0.84542   0.06511   0.00000  Uiso   1.00
C84    C     0.19831   0.77317   0.03383   0.00000  Uiso   1.00
H85    H     0.15134   0.79099   0.05982   0.00000  Uiso   1.00
C86    C     0.31856   0.76955   0.96664   0.00000  Uiso   1.00
H87    H     0.37708   0.78438   0.94023   0.00000  Uiso   1.00
O88    O     0.76541   0.89587   0.32429   0.00000  Uiso   1.00
O89    O     0.74031   0.85393   0.26963   0.00000  Uiso   1.00
C90    C     0.82362   0.86772   0.30034   0.00000  Uiso   1.00
C91    C     0.99803   0.84857   0.30979   0.00000  Uiso   1.00
H92    H     0.06035   0.83518   0.28294   0.00000  Uiso   1.00
H93    H     0.08579   0.87095   0.32453   0.00000  Uiso   1.00
H94    H     0.97366   0.82297   0.33147   0.00000  Uiso   1.00
O95    O     0.73323   0.97817   0.12032   0.00000  Uiso   1.00
O96    O     0.70895   0.91052   0.14013   0.00000  Uiso   1.00
C97    C     0.79119   0.94077   0.12333   0.00000  Uiso   1.00
C98    C     0.96617   0.93175   0.10473   0.00000  Uiso   1.00
H99    H     0.04371   0.96040   0.10162   0.00000  Uiso   1.00
H100   H     0.03927   0.90825   0.12193   0.00000  Uiso   1.00
H101   H     0.94223   0.91912   0.07417   0.00000  Uiso   1.00
H102   H     0.68153   0.90720   0.21480   0.00000  Uiso   1.00
H103   H     0.32080   0.96750   0.17321   0.00000  Uiso   1.00
Al104  Al    0.96967   0.40299   0.15992   0.00000  Uiso   1.00
O105   O     0.93362   0.46044   0.16030   0.00000  Uiso   1.00
O106   O     0.05130   0.39999   0.21364   0.00000  Uiso   1.00
O107   O     0.06577   0.31299   0.21383   0.00000  Uiso   1.00
O108   O     0.00030   0.34392   0.15382   0.00000  Uiso   1.00
C109   C     0.06495   0.31462   0.17530   0.00000  Uiso   1.00
C110   C     0.14980   0.27976   0.15271   0.00000  Uiso   1.00
C111   C     0.14586   0.27965   0.11026   0.00000  Uiso   1.00
H112   H     0.07520   0.30466   0.09491   0.00000  Uiso   1.00
C113   C     0.24631   0.28730   0.02225   0.00000  Uiso   1.00
H114   H     0.24888   0.31661   0.03922   0.00000  Uiso   1.00
O115   O     0.89122   0.39936   0.10601   0.00000  Uiso   1.00
O116   O     0.93387   0.46258   0.07624   0.00000  Uiso   1.00
C117   C     0.89445   0.42396   0.07577   0.00000  Uiso   1.00
C118   C     0.85316   0.40419   0.03613   0.00000  Uiso   1.00
C119   C     0.81442   0.36140   0.03577   0.00000  Uiso   1.00
H120   H     0.81087   0.34519   0.06476   0.00000  Uiso   1.00
C121   C     0.69436   0.27315   0.03310   0.00000  Uiso   1.00
H122   H     0.64500   0.29105   0.05880   0.00000  Uiso   1.00
C123   C     0.81993   0.26936   0.96643   0.00000  Uiso   1.00
H124   H     0.88019   0.28413   0.94020   0.00000  Uiso   1.00
O125   O     0.25807   0.39394   0.32402   0.00000  Uiso   1.00
O126   O     0.23338   0.35367   0.26817   0.00000  Uiso   1.00
C127   C     0.31673   0.36666   0.29925   0.00000  Uiso   1.00
C128   C     0.49165   0.34770   0.30831   0.00000  Uiso   1.00
H129   H     0.55070   0.33298   0.28173   0.00000  Uiso   1.00
H130   H     0.58130   0.37076   0.32146   0.00000  Uiso   1.00
H131   H     0.46980   0.32336   0.33142   0.00000  Uiso   1.00
O132   O     0.23221   0.47736   0.11828   0.00000  Uiso   1.00
O133   O     0.20844   0.41037   0.14019   0.00000  Uiso   1.00
C134   C     0.29057   0.44016   0.12257   0.00000  Uiso   1.00
C135   C     0.46627   0.43073   0.10450   0.00000  Uiso   1.00
H136   H     0.54012   0.45953   0.09897   0.00000  Uiso   1.00
H137   H     0.54258   0.40945   0.12358   0.00000  Uiso   1.00
H138   H     0.44402   0.41507   0.07521   0.00000  Uiso   1.00
H139   H     0.17441   0.40695   0.21555   0.00000  Uiso   1.00
H140   H    -0.16638   0.46942   0.17599   0.00000  Uiso   1.00
Al141  Al    0.47067   0.09697   0.34078   0.00000  Uiso   1.00
O142   O     0.43440   0.03937   0.33834   0.00000  Uiso   1.00
O143   O     0.55762   0.10160   0.28796   0.00000  Uiso   1.00
O144   O     0.56619   0.18569   0.28738   0.00000  Uiso   1.00
O145   O     0.50011   0.15568   0.34772   0.00000  Uiso   1.00
C146   C     0.56545   0.18459   0.32588   0.00000  Uiso   1.00
C147   C     0.65054   0.21967   0.34815   0.00000  Uiso   1.00
C148   C     0.64701   0.22008   0.39061   0.00000  Uiso   1.00
H149   H     0.57677   0.19514   0.40614   0.00000  Uiso   1.00
C150   C     0.74816   0.21303   0.47864   0.00000  Uiso   1.00
H151   H     0.75166   0.18365   0.46181   0.00000  Uiso   1.00
O152   O     0.38382   0.10000   0.39408   0.00000  Uiso   1.00
O153   O     0.44175   0.03743   0.42368   0.00000  Uiso   1.00
C154   C     0.39567   0.07564   0.42440   0.00000  Uiso   1.00
C155   C     0.35651   0.09530   0.46422   0.00000  Uiso   1.00
C156   C     0.31720   0.13807   0.46450   0.00000  Uiso   1.00
H157   H     0.31310   0.15415   0.43545   0.00000  Uiso   1.00
C158   C     0.19620   0.22633   0.46686   0.00000  Uiso   1.00
H159   H     0.14825   0.20836   0.44106   0.00000  Uiso   1.00
C160   C     0.32001   0.23040   0.53365   0.00000  Uiso   1.00
H161   H     0.38026   0.21578   0.55996   0.00000  Uiso   1.00
O162   O     0.75890   0.10450   0.17621   0.00000  Uiso   1.00
O163   O     0.73237   0.14790   0.22991   0.00000  Uiso   1.00
C164   C     0.81641   0.13325   0.19976   0.00000  Uiso   1.00
C165   C     0.99134   0.15199   0.19018   0.00000  Uiso   1.00
H166   H     0.05343   0.16578   0.21686   0.00000  Uiso   1.00
H167   H     0.07887   0.12922   0.17591   0.00000  Uiso   1.00
H168   H     0.96815   0.17718   0.16800   0.00000  Uiso   1.00
O169   O     0.73371   0.02111   0.37987   0.00000  Uiso   1.00
O170   O     0.70669   0.08932   0.36210   0.00000  Uiso   1.00
C171   C     0.79030   0.05881   0.37783   0.00000  Uiso   1.00
C172   C     0.96541   0.06765   0.39645   0.00000  Uiso   1.00
H173   H     0.04216   0.03891   0.39977   0.00000  Uiso   1.00
H174   H     0.03896   0.09087   0.37898   0.00000  Uiso   1.00
H175   H     0.94226   0.08071   0.42686   0.00000  Uiso   1.00
H176   H     0.63651   0.07984   0.27914   0.00000  Uiso   1.00
H177   H     0.31862   0.03306   0.32809   0.00000  Uiso   1.00
Al178  Al    0.97476   0.59732   0.34072   0.00000  Uiso   1.00
O179   O     0.93493   0.53963   0.33742   0.00000  Uiso   1.00
O180   O     0.06660   0.60162   0.28831   0.00000  Uiso   1.00
O181   O     0.07456   0.68568   0.28756   0.00000  Uiso   1.00
O182   O     0.00850   0.65591   0.34789   0.00000  Uiso   1.00
C183   C     0.07796   0.68428   0.32604   0.00000  Uiso   1.00
C184   C     0.17205   0.71823   0.34804   0.00000  Uiso   1.00
C185   C     0.17960   0.71721   0.39046   0.00000  Uiso   1.00
H186   H     0.11382   0.69158   0.40601   0.00000  Uiso   1.00
C187   C     0.26305   0.71196   0.47983   0.00000  Uiso   1.00
H188   H     0.27648   0.68191   0.46440   0.00000  Uiso   1.00
O189   O     0.88296   0.60020   0.39348   0.00000  Uiso   1.00
O190   O     0.94182   0.53739   0.42219   0.00000  Uiso   1.00
C191   C     0.89391   0.57544   0.42348   0.00000  Uiso   1.00
C192   C     0.85385   0.59489   0.46341   0.00000  Uiso   1.00
C193   C     0.81070   0.63749   0.46360   0.00000  Uiso   1.00
H194   H     0.79465   0.65288   0.43442   0.00000  Uiso   1.00
O195   O     0.25930   0.60434   0.17635   0.00000  Uiso   1.00
O196   O     0.23452   0.64802   0.22965   0.00000  Uiso   1.00
C197   C     0.31698   0.63358   0.19934   0.00000  Uiso   1.00
C198   C     0.48930   0.65326   0.18886   0.00000  Uiso   1.00
H199   H     0.55926   0.66416   0.21582   0.00000  Uiso   1.00
H200   H     0.57168   0.63238   0.17075   0.00000  Uiso   1.00
H201   H     0.46022   0.68097   0.17017   0.00000  Uiso   1.00
O202   O     0.23428   0.52064   0.37790   0.00000  Uiso   1.00
O203   O     0.20651   0.58959   0.36385   0.00000  Uiso   1.00
C204   C     0.29096   0.55843   0.37780   0.00000  Uiso   1.00
C205   C     0.46677   0.56644   0.39639   0.00000  Uiso   1.00
H206   H     0.54522   0.53779   0.39774   0.00000  Uiso   1.00
H207   H     0.53789   0.59101   0.38012   0.00000  Uiso   1.00
H208   H     0.44479   0.57741   0.42762   0.00000  Uiso   1.00
H209   H     0.06524   0.57457   0.27498   0.00000  Uiso   1.00
H210   H    -0.18451   0.53436   0.32888   0.00000  Uiso   1.00
Al211  Al    0.52338   0.90433   0.34064   0.00000  Uiso   1.00
O212   O     0.56129   0.96202   0.33800   0.00000  Uiso   1.00
O213   O     0.43388   0.89953   0.28814   0.00000  Uiso   1.00
O214   O     0.43374   0.81467   0.28763   0.00000  Uiso   1.00
O215   O     0.49163   0.84578   0.34777   0.00000  Uiso   1.00
C216   C     0.43061   0.81626   0.32610   0.00000  Uiso   1.00
C217   C     0.34587   0.78102   0.34808   0.00000  Uiso   1.00
C218   C     0.34965   0.78048   0.39049   0.00000  Uiso   1.00
H219   H     0.41979   0.80537   0.40612   0.00000  Uiso   1.00
C220   C     0.25031   0.78733   0.47826   0.00000  Uiso   1.00
H221   H     0.24527   0.81668   0.46141   0.00000  Uiso   1.00
O222   O     0.60941   0.90042   0.39399   0.00000  Uiso   1.00
O223   O     0.56585   0.96374   0.42349   0.00000  Uiso   1.00
C224   C     0.60452   0.92504   0.42422   0.00000  Uiso   1.00
C225   C     0.64327   0.90497   0.46395   0.00000  Uiso   1.00
C226   C     0.68203   0.86212   0.46403   0.00000  Uiso   1.00
H227   H     0.68610   0.84618   0.43491   0.00000  Uiso   1.00
C228   C     0.80150   0.77330   0.46654   0.00000  Uiso   1.00
H229   H     0.84759   0.79099   0.44037   0.00000  Uiso   1.00
C230   C     0.68215   0.76991   0.53379   0.00000  Uiso   1.00
H231   H     0.62350   0.78477   0.56018   0.00000  Uiso   1.00
O232   O     0.23379   0.89403   0.17628   0.00000  Uiso   1.00
O233   O     0.26686   0.85149   0.23009   0.00000  Uiso   1.00
C234   C     0.18049   0.86493   0.19997   0.00000  Uiso   1.00
C235   C     0.00920   0.84421   0.19041   0.00000  Uiso   1.00
H236   H     0.94026   0.83407   0.21777   0.00000  Uiso   1.00
H237   H     0.92526   0.86423   0.17178   0.00000  Uiso   1.00
H238   H     0.03958   0.81597   0.17259   0.00000  Uiso   1.00
O239   O     0.26655   0.98010   0.38182   0.00000  Uiso   1.00
O240   O     0.29058   0.91241   0.36246   0.00000  Uiso   1.00
C241   C     0.20803   0.94263   0.37878   0.00000  Uiso   1.00
C242   C     0.03237   0.93381   0.39715   0.00000  Uiso   1.00
H243   H     0.95593   0.96258   0.40057   0.00000  Uiso   1.00
H244   H     0.95906   0.91078   0.37938   0.00000  Uiso   1.00
H245   H     0.05444   0.92052   0.42752   0.00000  Uiso   1.00
H246   H     0.42936   0.92631   0.27437   0.00000  Uiso   1.00
H247   H     0.67943   0.96774   0.32890   0.00000  Uiso   1.00
Al248  Al    0.01780   0.40357   0.34027   0.00000  Uiso   1.00
O249   O     0.05850   0.46107   0.33643   0.00000  Uiso   1.00
O250   O     0.92551   0.39824   0.28802   0.00000  Uiso   1.00
O251   O     0.92527   0.31432   0.28794   0.00000  Uiso   1.00
O252   O     0.98243   0.34549   0.34804   0.00000  Uiso   1.00
C253   C     0.91774   0.31641   0.32639   0.00000  Uiso   1.00
C254   C     0.82427   0.28244   0.34838   0.00000  Uiso   1.00
C255   C     0.81708   0.28331   0.39080   0.00000  Uiso   1.00
H256   H     0.88296   0.30890   0.40638   0.00000  Uiso   1.00
C257   C     0.73742   0.28835   0.48030   0.00000  Uiso   1.00
H258   H     0.72417   0.31845   0.46496   0.00000  Uiso   1.00
O259   O     0.10794   0.40024   0.39334   0.00000  Uiso   1.00
O260   O     0.06643   0.46388   0.42205   0.00000  Uiso   1.00
C261   C     0.10493   0.42516   0.42329   0.00000  Uiso   1.00
C262   C     0.14568   0.40528   0.46306   0.00000  Uiso   1.00
C263   C     0.18857   0.36261   0.46296   0.00000  Uiso   1.00
H264   H     0.20423   0.34735   0.43370   0.00000  Uiso   1.00
O265   O     0.73234   0.39377   0.17631   0.00000  Uiso   1.00
O266   O     0.75968   0.35012   0.22962   0.00000  Uiso   1.00
C267   C     0.67646   0.36430   0.19925   0.00000  Uiso   1.00
C268   C     0.50528   0.34397   0.18885   0.00000  Uiso   1.00
H269   H     0.43452   0.33372   0.21595   0.00000  Uiso   1.00
H270   H     0.42278   0.36421   0.17012   0.00000  Uiso   1.00
H271   H     0.53618   0.31576   0.17102   0.00000  Uiso   1.00
O272   O     0.76578   0.48084   0.37993   0.00000  Uiso   1.00
O273   O     0.78526   0.41251   0.36228   0.00000  Uiso   1.00
C274   C     0.70460   0.44350   0.37772   0.00000  Uiso   1.00
C275   C     0.52712   0.43582   0.39558   0.00000  Uiso   1.00
H276   H     0.44986   0.46467   0.39684   0.00000  Uiso   1.00
H277   H     0.45614   0.41153   0.37891   0.00000  Uiso   1.00
H278   H     0.54635   0.42467   0.42685   0.00000  Uiso   1.00
H279   H     0.92046   0.42507   0.27432   0.00000  Uiso   1.00
H280   H     1.17641   0.46636   0.32687   0.00000  Uiso   1.00
Al281  Al    0.47309   0.90442   0.84043   0.00000  Uiso   1.00
O282   O     0.44077   0.96216   0.83835   0.00000  Uiso   1.00
O283   O     0.55765   0.90002   0.78708   0.00000  Uiso   1.00
O284   O     0.56756   0.81445   0.78766   0.00000  Uiso   1.00
O285   O     0.50846   0.84560   0.84789   0.00000  Uiso   1.00
C286   C     0.57405   0.81663   0.82612   0.00000  Uiso   1.00
C287   C     0.66902   0.78263   0.84801   0.00000  Uiso   1.00
C288   C     0.67829   0.78338   0.89042   0.00000  Uiso   1.00
H289   H     0.61301   0.80895   0.90620   0.00000  Uiso   1.00
C290   C     0.76203   0.78832   0.97980   0.00000  Uiso   1.00
H291   H     0.77393   0.81846   0.96448   0.00000  Uiso   1.00
O292   O     0.38459   0.90044   0.89369   0.00000  Uiso   1.00
O293   O     0.43355   0.96338   0.92352   0.00000  Uiso   1.00
C294   C     0.39078   0.92492   0.92400   0.00000  Uiso   1.00
C295   C     0.35071   0.90489   0.96364   0.00000  Uiso   1.00
C296   C     0.30788   0.86227   0.96364   0.00000  Uiso   1.00
H297   H     0.29111   0.84700   0.93443   0.00000  Uiso   1.00
O298   O     0.76572   0.89375   0.67609   0.00000  Uiso   1.00
O299   O     0.73455   0.85189   0.73069   0.00000  Uiso   1.00
C300   C     0.82080   0.86549   0.70032   0.00000  Uiso   1.00
C301   C     0.99451   0.84586   0.69135   0.00000  Uiso   1.00
H302   H     0.05550   0.83238   0.71831   0.00000  Uiso   1.00
H303   H     0.08372   0.86809   0.67678   0.00000  Uiso   1.00
H304   H     0.97002   0.82033   0.66961   0.00000  Uiso   1.00
O305   O     0.73333   0.97944   0.88212   0.00000  Uiso   1.00
O306   O     0.70847   0.91213   0.86163   0.00000  Uiso   1.00
C307   C     0.79131   0.94211   0.87862   0.00000  Uiso   1.00
C308   C     0.96686   0.93281   0.89676   0.00000  Uiso   1.00
H309   H     0.04261   0.96155   0.90114   0.00000  Uiso   1.00
H310   H     0.04105   0.91051   0.87833   0.00000  Uiso   1.00
H311   H     0.94462   0.91838   0.92664   0.00000  Uiso   1.00
H312   H     0.67331   0.91169   0.78306   0.00000  Uiso   1.00
H313   H     0.33181   0.96976   0.82531   0.00000  Uiso   1.00
Al314  Al    0.97999   0.40439   0.84068   0.00000  Uiso   1.00
O315   O     0.94261   0.46208   0.83830   0.00000  Uiso   1.00
O316   O     0.06520   0.39981   0.78770   0.00000  Uiso   1.00
O317   O     0.07543   0.31459   0.78780   0.00000  Uiso   1.00
O318   O     0.01631   0.34578   0.84792   0.00000  Uiso   1.00
C319   C     0.08206   0.31681   0.82620   0.00000  Uiso   1.00
C320   C     0.17609   0.28282   0.84827   0.00000  Uiso   1.00
C321   C     0.18313   0.28365   0.89070   0.00000  Uiso   1.00
H322   H     0.11660   0.30915   0.90628   0.00000  Uiso   1.00
C323   C     0.26173   0.28844   0.98030   0.00000  Uiso   1.00
H324   H     0.27444   0.31863   0.96510   0.00000  Uiso   1.00
O325   O     0.89232   0.40037   0.89385   0.00000  Uiso   1.00
O326   O     0.93322   0.46370   0.92356   0.00000  Uiso   1.00
C327   C     0.89356   0.42504   0.92403   0.00000  Uiso   1.00
C328   C     0.85075   0.40490   0.96348   0.00000  Uiso   1.00
C329   C     0.80832   0.36225   0.96327   0.00000  Uiso   1.00
H330   H     0.79369   0.34697   0.93400   0.00000  Uiso   1.00
O331   O     0.26885   0.39410   0.67594   0.00000  Uiso   1.00
O332   O     0.24116   0.35200   0.73039   0.00000  Uiso   1.00
C333   C     0.32554   0.36571   0.69989   0.00000  Uiso   1.00
C334   C     0.49956   0.34625   0.69061   0.00000  Uiso   1.00
H335   H     0.56253   0.33345   0.71767   0.00000  Uiso   1.00
H336   H     0.58716   0.36826   0.67529   0.00000  Uiso   1.00
H337   H     0.47442   0.32015   0.66957   0.00000  Uiso   1.00
O338   O     0.23418   0.47983   0.88214   0.00000  Uiso   1.00
O339   O     0.21522   0.41241   0.86184   0.00000  Uiso   1.00
C340   C     0.29531   0.44275   0.87880   0.00000  Uiso   1.00
C341   C     0.47158   0.43426   0.89694   0.00000  Uiso   1.00
H342   H     0.54627   0.46322   0.90081   0.00000  Uiso   1.00
H343   H     0.54612   0.41176   0.87881   0.00000  Uiso   1.00
H344   H     0.45040   0.42035   0.92709   0.00000  Uiso   1.00
H345   H     0.15363   0.41961   0.77942   0.00000  Uiso   1.00
H346   H    -0.17032   0.46843   0.82653   0.00000  Uiso   1.00
Al347  Al    0.52988   0.09677   0.84092   0.00000  Uiso   1.00
O348   O     0.56648   0.03936   0.83975   0.00000  Uiso   1.00
O349   O     0.44259   0.10011   0.78768   0.00000  Uiso   1.00
O350   O     0.43412   0.18571   0.78747   0.00000  Uiso   1.00
O351   O     0.49987   0.15582   0.84790   0.00000  Uiso   1.00
C352   C     0.43505   0.18476   0.82598   0.00000  Uiso   1.00
C353   C     0.35017   0.22002   0.84810   0.00000  Uiso   1.00
C354   C     0.35384   0.22050   0.89054   0.00000  Uiso   1.00
H355   H     0.42442   0.19563   0.90609   0.00000  Uiso   1.00
C356   C     0.25283   0.21311   0.97833   0.00000  Uiso   1.00
H357   H     0.25017   0.18381   0.96138   0.00000  Uiso   1.00
O358   O     0.61558   0.10003   0.89425   0.00000  Uiso   1.00
O359   O     0.55821   0.03734   0.92386   0.00000  Uiso   1.00
C360   C     0.60475   0.07554   0.92449   0.00000  Uiso   1.00
C361   C     0.64527   0.09507   0.96429   0.00000  Uiso   1.00
C362   C     0.68491   0.13781   0.96459   0.00000  Uiso   1.00
H363   H     0.68859   0.15397   0.93558   0.00000  Uiso   1.00
C364   C     0.80536   0.22609   0.96711   0.00000  Uiso   1.00
H365   H     0.85458   0.20819   0.94140   0.00000  Uiso   1.00
C366   C     0.67986   0.22989   0.03378   0.00000  Uiso   1.00
H367   H     0.61957   0.21511   0.06001   0.00000  Uiso   1.00
O368   O     0.24090   0.10632   0.67613   0.00000  Uiso   1.00
O369   O     0.26617   0.14769   0.73140   0.00000  Uiso   1.00
C370   C     0.18289   0.13412   0.70049   0.00000  Uiso   1.00
C371   C     0.00823   0.15311   0.69121   0.00000  Uiso   1.00
H372   H     0.94734   0.16719   0.71788   0.00000  Uiso   1.00
H373   H     0.91982   0.13026   0.67731   0.00000  Uiso   1.00
H374   H     0.03123   0.17800   0.66871   0.00000  Uiso   1.00
O375   O     0.26605   0.02124   0.88003   0.00000  Uiso   1.00
O376   O     0.29246   0.08940   0.86184   0.00000  Uiso   1.00
C377   C     0.20895   0.05880   0.87772   0.00000  Uiso   1.00
C378   C     0.03340   0.06759   0.89612   0.00000  Uiso   1.00
H379   H     0.95715   0.03878   0.89949   0.00000  Uiso   1.00
H380   H     0.95945   0.09065   0.87854   0.00000  Uiso   1.00
H381   H     0.05595   0.08080   0.92651   0.00000  Uiso   1.00
H382   H     0.31892   0.09364   0.78638   0.00000  Uiso   1.00
H383   H     0.67543   0.03181   0.82671   0.00000  Uiso   1.00
Al384  Al    0.02738   0.59673   0.84013   0.00000  Uiso   1.00
O385   O     0.06694   0.53941   0.83962   0.00000  Uiso   1.00
O386   O     0.94149   0.59968   0.78652   0.00000  Uiso   1.00
O387   O     0.92505   0.68562   0.78617   0.00000  Uiso   1.00
O388   O     0.99342   0.65567   0.84636   0.00000  Uiso   1.00
C389   C     0.92721   0.68458   0.82470   0.00000  Uiso   1.00
C390   C     0.84289   0.71974   0.84723   0.00000  Uiso   1.00
C391   C     0.84839   0.72012   0.88970   0.00000  Uiso   1.00
H392   H     0.91947   0.69517   0.90501   0.00000  Uiso   1.00
C393   C     0.75297   0.71306   0.97816   0.00000  Uiso   1.00
H394   H     0.74950   0.68365   0.96139   0.00000  Uiso   1.00
O395   O     0.10807   0.60042   0.89402   0.00000  Uiso   1.00
O396   O     0.05831   0.53745   0.92377   0.00000  Uiso   1.00
C397   C     0.10146   0.57586   0.92425   0.00000  Uiso   1.00
C398   C     0.14296   0.59547   0.96398   0.00000  Uiso   1.00
C399   C     0.18254   0.63821   0.96450   0.00000  Uiso   1.00
H400   H     0.18573   0.65454   0.93558   0.00000  Uiso   1.00
C401   C     0.30332   0.72631   0.96719   0.00000  Uiso   1.00
H402   H     0.35029   0.70851   0.94119   0.00000  Uiso   1.00
C403   C     0.18310   0.72992   0.03438   0.00000  Uiso   1.00
H404   H     0.12470   0.71509   0.06081   0.00000  Uiso   1.00
O405   O     0.73432   0.60417   0.67573   0.00000  Uiso   1.00
O406   O     0.75945   0.64603   0.73045   0.00000  Uiso   1.00
C407   C     0.67605   0.63225   0.69972   0.00000  Uiso   1.00
C408   C     0.50140   0.65131   0.69031   0.00000  Uiso   1.00
H409   H     0.43999   0.66523   0.71704   0.00000  Uiso   1.00
H410   H     0.41306   0.62865   0.67613   0.00000  Uiso   1.00
H411   H     0.52504   0.67647   0.66810   0.00000  Uiso   1.00
O412   O     0.76632   0.52128   0.87992   0.00000  Uiso   1.00
O413   O     0.79001   0.58898   0.86001   0.00000  Uiso   1.00
C414   C     0.70783   0.55862   0.87671   0.00000  Uiso   1.00
C415   C     0.53208   0.56755   0.89497   0.00000  Uiso   1.00
H416   H     0.45510   0.53884   0.89823   0.00000  Uiso   1.00
H417   H     0.45894   0.59080   0.87748   0.00000  Uiso   1.00
H418   H     0.55469   0.58051   0.92546   0.00000  Uiso   1.00
H419   H     0.81878   0.59228   0.78518   0.00000  Uiso   1.00
H420   H     1.17807   0.53228   0.82742   0.00000  Uiso   1.00
Al421  Al    0.52545   0.90279   0.65951   0.00000  Uiso   1.00
O422   O     0.56480   0.96047   0.66250   0.00000  Uiso   1.00
O423   O     0.43375   0.89818   0.71183   0.00000  Uiso   1.00
O424   O     0.42536   0.81433   0.71258   0.00000  Uiso   1.00
O425   O     0.49168   0.84416   0.65225   0.00000  Uiso   1.00
C426   C     0.42217   0.81579   0.67408   0.00000  Uiso   1.00
C427   C     0.32783   0.78187   0.65206   0.00000  Uiso   1.00
C428   C     0.32034   0.78289   0.60964   0.00000  Uiso   1.00
H429   H     0.38611   0.80855   0.59413   0.00000  Uiso   1.00
C430   C     0.23713   0.78823   0.52024   0.00000  Uiso   1.00
H431   H     0.22371   0.81828   0.53566   0.00000  Uiso   1.00
O432   O     0.61636   0.89981   0.60658   0.00000  Uiso   1.00
O433   O     0.55829   0.96262   0.57775   0.00000  Uiso   1.00
C434   C     0.60550   0.92452   0.57653   0.00000  Uiso   1.00
C435   C     0.64593   0.90504   0.53663   0.00000  Uiso   1.00
C436   C     0.68922   0.86246   0.53646   0.00000  Uiso   1.00
H437   H     0.70528   0.84708   0.56563   0.00000  Uiso   1.00
O438   O     0.23512   0.89580   0.82357   0.00000  Uiso   1.00
O439   O     0.26467   0.85198   0.77045   0.00000  Uiso   1.00
C440   C     0.17957   0.86654   0.80035   0.00000  Uiso   1.00
C441   C     0.00615   0.84707   0.81016   0.00000  Uiso   1.00
H442   H     0.94094   0.83452   0.78326   0.00000  Uiso   1.00
H443   H     0.92014   0.86880   0.82634   0.00000  Uiso   1.00
H444   H     0.03271   0.82067   0.83076   0.00000  Uiso   1.00
O445   O     0.26548   0.97919   0.62190   0.00000  Uiso   1.00
O446   O     0.29253   0.91050   0.63733   0.00000  Uiso   1.00
C447   C     0.20861   0.94145   0.62273   0.00000  Uiso   1.00
C448   C     0.03308   0.93321   0.60410   0.00000  Uiso   1.00
H449   H     0.95458   0.96184   0.60247   0.00000  Uiso   1.00
H450   H     0.96172   0.90877   0.62046   0.00000  Uiso   1.00
H451   H     0.05554   0.92206   0.57294   0.00000  Uiso   1.00
H452   H     0.41686   0.92515   0.72470   0.00000  Uiso   1.00
H453   H     0.68377   0.96589   0.67125   0.00000  Uiso   1.00
Al454  Al    0.02909   0.40295   0.65946   0.00000  Uiso   1.00
O455   O     0.06608   0.46058   0.66187   0.00000  Uiso   1.00
O456   O     0.94109   0.39839   0.71209   0.00000  Uiso   1.00
O457   O     0.93364   0.31423   0.71373   0.00000  Uiso   1.00
O458   O     0.99990   0.34432   0.65358   0.00000  Uiso   1.00
C459   C     0.93414   0.31536   0.67525   0.00000  Uiso   1.00
C460   C     0.84915   0.28036   0.65287   0.00000  Uiso   1.00
C461   C     0.85313   0.28015   0.61041   0.00000  Uiso   1.00
H462   H     0.92358   0.30515   0.59503   0.00000  Uiso   1.00
C463   C     0.75272   0.28743   0.52226   0.00000  Uiso   1.00
H464   H     0.74933   0.31682   0.53909   0.00000  Uiso   1.00
O465   O     0.11595   0.39990   0.60602   0.00000  Uiso   1.00
O466   O     0.05811   0.46246   0.57641   0.00000  Uiso   1.00
C467   C     0.10387   0.42421   0.57567   0.00000  Uiso   1.00
C468   C     0.14263   0.40458   0.53578   0.00000  Uiso   1.00
C469   C     0.18207   0.36183   0.53541   0.00000  Uiso   1.00
H470   H     0.18648   0.34570   0.56442   0.00000  Uiso   1.00
C471   C     0.30399   0.27364   0.53293   0.00000  Uiso   1.00
H472   H     0.35204   0.29162   0.55871   0.00000  Uiso   1.00
C473   C     0.18026   0.26958   0.46613   0.00000  Uiso   1.00
H474   H     0.12014   0.28421   0.43979   0.00000  Uiso   1.00
O475   O     0.74173   0.39565   0.82392   0.00000  Uiso   1.00
O476   O     0.76967   0.35208   0.77055   0.00000  Uiso   1.00
C477   C     0.68486   0.36672   0.80049   0.00000  Uiso   1.00
C478   C     0.51032   0.34776   0.81011   0.00000  Uiso   1.00
H479   H     0.44680   0.33467   0.78325   0.00000  Uiso   1.00
H480   H     0.42377   0.37012   0.82528   0.00000  Uiso   1.00
H481   H     0.53448   0.32194   0.83152   0.00000  Uiso   1.00
O482   O     0.76598   0.47877   0.62017   0.00000  Uiso   1.00
O483   O     0.79392   0.41055   0.63774   0.00000  Uiso   1.00
C484   C     0.70990   0.44100   0.62212   0.00000  Uiso   1.00
C485   C     0.53455   0.43214   0.60363   0.00000  Uiso   1.00
H486   H     0.45715   0.46082   0.60062   0.00000  Uiso   1.00
H487   H     0.46176   0.40866   0.62093   0.00000  Uiso   1.00
H488   H     0.55751   0.41944   0.57305   0.00000  Uiso   1.00
H489   H     0.90657   0.42473   0.72410   0.00000  Uiso   1.00
H490   H     1.18404   0.46655   0.67088   0.00000  Uiso   1.00
Al491  Al    0.48042   0.09636   0.65966   0.00000  Uiso   1.00
O492   O     0.43693   0.03897   0.66243   0.00000  Uiso   1.00
O493   O     0.56726   0.10041   0.71246   0.00000  Uiso   1.00
O494   O     0.57472   0.18533   0.71253   0.00000  Uiso   1.00
O495   O     0.51792   0.15442   0.65223   0.00000  Uiso   1.00
C496   C     0.58216   0.18344   0.67409   0.00000  Uiso   1.00
C497   C     0.67533   0.21762   0.65230   0.00000  Uiso   1.00
C498   C     0.68294   0.21696   0.60989   0.00000  Uiso   1.00
H499   H     0.61710   0.19145   0.59418   0.00000  Uiso   1.00
C500   C     0.76341   0.21212   0.52059   0.00000  Uiso   1.00
H501   H     0.77686   0.18203   0.53591   0.00000  Uiso   1.00
O502   O     0.39166   0.09992   0.60652   0.00000  Uiso   1.00
O503   O     0.43349   0.03623   0.57783   0.00000  Uiso   1.00
C504   C     0.39464   0.07491   0.57662   0.00000  Uiso   1.00
C505   C     0.35357   0.09474   0.53688   0.00000  Uiso   1.00
C506   C     0.31093   0.13741   0.53692   0.00000  Uiso   1.00
H507   H     0.29544   0.15272   0.56615   0.00000  Uiso   1.00
O508   O     0.76696   0.10582   0.82397   0.00000  Uiso   1.00
O509   O     0.73914   0.14826   0.76999   0.00000  Uiso   1.00
C510   C     0.82282   0.13480   0.80054   0.00000  Uiso   1.00
C511   C     0.99374   0.15541   0.81065   0.00000  Uiso   1.00
H512   H     0.06595   0.16468   0.78344   0.00000  Uiso   1.00
H513   H     0.07494   0.13581   0.83032   0.00000  Uiso   1.00
H514   H     0.96229   0.18427   0.82742   0.00000  Uiso   1.00
O515   O     0.73376   0.01923   0.62006   0.00000  Uiso   1.00
O516   O     0.71312   0.08747   0.63787   0.00000  Uiso   1.00
C517   C     0.79450   0.05658   0.62245   0.00000  Uiso   1.00
C518   C     0.97181   0.06445   0.60457   0.00000  Uiso   1.00
H519   H     0.04899   0.03560   0.60304   0.00000  Uiso   1.00
H520   H     0.04291   0.08860   0.62139   0.00000  Uiso   1.00
H521   H     0.95236   0.07585   0.57339   0.00000  Uiso   1.00
H522   H     0.56351   0.07355   0.72607   0.00000  Uiso   1.00
H523   H     0.31811   0.03381   0.67127   0.00000  Uiso   1.00
Al524  Al    0.97602   0.59562   0.65939   0.00000  Uiso   1.00
O525   O     0.93573   0.53792   0.66200   0.00000  Uiso   1.00
O526   O     0.06585   0.60025   0.71193   0.00000  Uiso   1.00
O527   O     0.06618   0.68530   0.71239   0.00000  Uiso   1.00
O528   O     0.00854   0.65419   0.65221   0.00000  Uiso   1.00
C529   C     0.06941   0.68372   0.67391   0.00000  Uiso   1.00
C530   C     0.15411   0.71901   0.65195   0.00000  Uiso   1.00
C531   C     0.15016   0.71964   0.60953   0.00000  Uiso   1.00
H532   H     0.07998   0.69476   0.59387   0.00000  Uiso   1.00
C533   C     0.24983   0.71285   0.52181   0.00000  Uiso   1.00
H534   H     0.25494   0.68348   0.53866   0.00000  Uiso   1.00
O535   O     0.89040   0.59951   0.60602   0.00000  Uiso   1.00
O536   O     0.93390   0.53615   0.57658   0.00000  Uiso   1.00
C537   C     0.89580   0.57488   0.57581   0.00000  Uiso   1.00
C538   C     0.85678   0.59494   0.53608   0.00000  Uiso   1.00
C539   C     0.81819   0.63781   0.53603   0.00000  Uiso   1.00
H540   H     0.81409   0.65373   0.56517   0.00000  Uiso   1.00
C541   C     0.69901   0.72666   0.53356   0.00000  Uiso   1.00
H542   H     0.65299   0.70898   0.55975   0.00000  Uiso   1.00
C543   C     0.81831   0.73007   0.46631   0.00000  Uiso   1.00
H544   H     0.87697   0.71520   0.43992   0.00000  Uiso   1.00
O545   O     0.26525   0.60611   0.82390   0.00000  Uiso   1.00
O546   O     0.23278   0.64843   0.76990   0.00000  Uiso   1.00
C547   C     0.31860   0.63515   0.80021   0.00000  Uiso   1.00
C548   C     0.48948   0.65608   0.80976   0.00000  Uiso   1.00
H549   H     0.56023   0.66525   0.78230   0.00000  Uiso   1.00
H550   H     0.57212   0.63664   0.82926   0.00000  Uiso   1.00
H551   H     0.45834   0.68500   0.82646   0.00000  Uiso   1.00
O552   O     0.23286   0.51965   0.61840   0.00000  Uiso   1.00
O553   O     0.20896   0.58741   0.63763   0.00000  Uiso   1.00
C554   C     0.29153   0.55712   0.62140   0.00000  Uiso   1.00
C555   C     0.46747   0.56585   0.60314   0.00000  Uiso   1.00
H556   H     0.54437   0.53709   0.60015   0.00000  Uiso   1.00
H557   H     0.54005   0.58919   0.62067   0.00000  Uiso   1.00
H558   H     0.44565   0.57867   0.57256   0.00000  Uiso   1.00
H559   H     0.06378   0.57354   0.72584   0.00000  Uiso   1.00
H560   H    -0.18369   0.53251   0.67040   0.00000  Uiso   1.00
Al561  Al    0.49612   0.14296   0.24981   0.00000  Uiso   1.00
Al562  Al    0.00235   0.64320   0.25046   0.00000  Uiso   1.00
Al563  Al    0.50053   0.85746   0.25086   0.00000  Uiso   1.00
Al564  Al   -0.00729   0.35655   0.25052   0.00000  Uiso   1.00
Al565  Al    0.49766   0.85693   0.74982   0.00000  Uiso   1.00
Al566  Al    0.00485   0.35722   0.75029   0.00000  Uiso   1.00
Al567  Al    0.50482   0.14277   0.74989   0.00000  Uiso   1.00
Al568  Al   -0.00070   0.64248   0.74919   0.00000  Uiso   1.00
Al569  Al    0.49883  -0.00081   0.12115   0.00000  Uiso   1.00
Al570  Al   -0.00093   0.49908   0.12028   0.00000  Uiso   1.00
Al571  Al    0.49968   0.00062   0.37918   0.00000  Uiso   1.00
Al572  Al    0.00043   0.50038   0.37760   0.00000  Uiso   1.00
Al573  Al    0.49990   0.00042   0.87956   0.00000  Uiso   1.00
Al574  Al    0.00061   0.50049   0.87953   0.00000  Uiso   1.00
Al575  Al    0.49917  -0.00047   0.62212   0.00000  Uiso   1.00
Al576  Al   -0.00072   0.49926   0.62097   0.00000  Uiso   1.00
C577   C     0.23002   0.24813   0.08795   0.00000  Uiso   1.00
C578   C     0.23438   0.24905   0.04314   0.00000  Uiso   1.00
C579   C     0.24002   0.24867   0.17381   0.00000  Uiso   1.00
H580   H     0.24490   0.24909   0.20676   0.00000  Uiso   1.00
C581   C     0.73460   0.74853   0.08788   0.00000  Uiso   1.00
C582   C     0.73784   0.74928   0.04298   0.00000  Uiso   1.00
C583   C     0.74617   0.74926   0.17380   0.00000  Uiso   1.00
H584   H     0.75161   0.74973   0.20675   0.00000  Uiso   1.00
C585   C     0.73068   0.25181   0.41272   0.00000  Uiso   1.00
C586   C     0.73536   0.25115   0.45756   0.00000  Uiso   1.00
C587   C     0.74045   0.25065   0.32681   0.00000  Uiso   1.00
H588   H     0.74529   0.25000   0.29385   0.00000  Uiso   1.00
C589   C     0.26630   0.74863   0.41243   0.00000  Uiso   1.00
C590   C     0.26296   0.74920   0.45721   0.00000  Uiso   1.00
C591   C     0.25615   0.75007   0.32659   0.00000  Uiso   1.00
H592   H     0.25143   0.75085   0.29365   0.00000  Uiso   1.00
C593   C     0.76598   0.75186   0.91210   0.00000  Uiso   1.00
C594   C     0.76372   0.75118   0.95699   0.00000  Uiso   1.00
C595   C     0.75211   0.75085   0.82620   0.00000  Uiso   1.00
H596   H     0.74589   0.75031   0.79324   0.00000  Uiso   1.00
C597   C     0.26962   0.25216   0.91262   0.00000  Uiso   1.00
C598   C     0.26485   0.25136   0.95744   0.00000  Uiso   1.00
C599   C     0.26028   0.25103   0.82674   0.00000  Uiso   1.00
H600   H     0.25540   0.25035   0.79378   0.00000  Uiso   1.00
C601   C     0.23360   0.75152   0.58762   0.00000  Uiso   1.00
C602   C     0.23705   0.75099   0.54285   0.00000  Uiso   1.00
C603   C     0.24375   0.74998   0.67348   0.00000  Uiso   1.00
H604   H     0.24850   0.74916   0.70645   0.00000  Uiso   1.00
C605   C     0.76947   0.24855   0.58814   0.00000  Uiso   1.00
C606   C     0.76532   0.24930   0.54331   0.00000  Uiso   1.00
C607   C     0.75905   0.24929   0.67405   0.00000  Uiso   1.00
H608   H     0.75397   0.24979   0.70701   0.00000  Uiso   1.00
C609   C     0.62695   0.07286   0.00050   0.00000  Uiso   1.00
H610   H     0.58997   0.03995   0.00033   0.00000  Uiso   1.00
C611   C     0.70868   0.15970   0.00091   0.00000  Uiso   1.00
C612   C     0.73456   0.20540   0.00082   0.00000  Uiso   1.00
C613   C     0.12554   0.57307   0.00009   0.00000  Uiso   1.00
H614   H     0.08884   0.54015  -0.00023   0.00000  Uiso   1.00
C615   C     0.20746   0.65985   0.00095   0.00000  Uiso   1.00
C616   C     0.23452   0.70551   0.00107   0.00000  Uiso   1.00
C617   C     0.37378   0.92650   0.00002   0.00000  Uiso   1.00
H618   H     0.41020   0.95945   0.00008   0.00000  Uiso   1.00
C619   C     0.29283   0.83965  -0.00018   0.00000  Uiso   1.00
C620   C     0.26671   0.79397  -0.00009   0.00000  Uiso   1.00
C621   C     0.87126   0.42645  -0.00005   0.00000  Uiso   1.00
H622   H     0.90735   0.45940   0.00021   0.00000  Uiso   1.00
C623   C     0.79121   0.33956  -0.00064   0.00000  Uiso   1.00
C624   C     0.76511   0.29386  -0.00062   0.00000  Uiso   1.00
C625   C     0.37499   0.07313   0.50046   0.00000  Uiso   1.00
H626   H     0.41121   0.04018   0.50031   0.00000  Uiso   1.00
C627   C     0.29380   0.16004   0.50080   0.00000  Uiso   1.00
C628   C     0.26703   0.20574   0.50064   0.00000  Uiso   1.00
C629   C     0.87530   0.57302   0.49970   0.00000  Uiso   1.00
H630   H     0.91141   0.54004   0.49966   0.00000  Uiso   1.00
C631   C     0.79452   0.65998   0.49982   0.00000  Uiso   1.00
C632   C     0.76784   0.70571   0.49977   0.00000  Uiso   1.00
C633   C     0.62466   0.92690   0.50032   0.00000  Uiso   1.00
H634   H     0.58830   0.95985   0.50035   0.00000  Uiso   1.00
C635   C     0.70560   0.83996   0.50025   0.00000  Uiso   1.00
C636   C     0.73254   0.79425   0.50031   0.00000  Uiso   1.00
C637   C     0.12403   0.42682   0.49955   0.00000  Uiso   1.00
H638   H     0.08779   0.45979   0.49975   0.00000  Uiso   1.00
C639   C     0.20580   0.33994   0.49907   0.00000  Uiso   1.00
C640   C     0.23305   0.29424   0.49917   0.00000  Uiso   1.00
