data_RHO_i43m_C1_Cs_conv1_conp
_audit_creation_date              2014-09-22
_audit_creation_method            'Materials Studio'
_symmetry_space_group_name_H-M    'P1'
_symmetry_Int_Tables_number       1
_symmetry_cell_setting            triclinic
loop_
_symmetry_equiv_pos_as_xyz
  x,y,z
_cell_length_a                    29.6785
_cell_length_b                    29.6573
_cell_length_c                    29.6786
_cell_angle_alpha                 90.0931
_cell_angle_beta                  90.0636
_cell_angle_gamma                 89.9568
loop_
_atom_site_label
_atom_site_type_symbol
_atom_site_fract_x
_atom_site_fract_y
_atom_site_fract_z
_atom_site_U_iso_or_equiv
_atom_site_adp_type
_atom_site_occupancy
Si1    Si    0.04867   0.12044   0.19213   0.00000  Uiso   1.00
Si2    Si    0.04569   0.88863   0.31072   0.00000  Uiso   1.00
Si3    Si    0.04729   0.88877   0.81239   0.00000  Uiso   1.00
Si4    Si    0.04672   0.38634   0.81092   0.00000  Uiso   1.00
Si5    Si    0.04837   0.81380   0.88403   0.00000  Uiso   1.00
Si6    Si    0.04743   0.62060   0.69269   0.00000  Uiso   1.00
Si7    Si    0.04766   0.38737   0.31061   0.00000  Uiso   1.00
Si8    Si    0.04566   0.11833   0.69241   0.00000  Uiso   1.00
Si9    Si    0.04665   0.62173   0.19184   0.00000  Uiso   1.00
Si10   Si    0.04851   0.31253   0.38254   0.00000  Uiso   1.00
Si11   Si    0.04675   0.81408   0.38362   0.00000  Uiso   1.00
Si12   Si    0.04625   0.19350   0.62006   0.00000  Uiso   1.00
Si13   Si    0.04804   0.19372   0.11851   0.00000  Uiso   1.00
Si14   Si    0.04597   0.31286   0.88508   0.00000  Uiso   1.00
Si15   Si    0.04756   0.69470   0.61972   0.00000  Uiso   1.00
Si16   Si    0.04610   0.69537   0.11802   0.00000  Uiso   1.00
Si17   Si    0.06112   0.63583   0.79352   0.00000  Uiso   1.00
Si18   Si    0.06125   0.63757   0.29236   0.00000  Uiso   1.00
Si19   Si    0.06156   0.13540   0.29326   0.00000  Uiso   1.00
Si20   Si    0.06226   0.13558   0.79321   0.00000  Uiso   1.00
Si21   Si    0.06138   0.87222   0.20988   0.00000  Uiso   1.00
Si22   Si    0.06135   0.87132   0.71170   0.00000  Uiso   1.00
Si23   Si    0.06001   0.37113   0.71036   0.00000  Uiso   1.00
Si24   Si    0.06191   0.37197   0.20943   0.00000  Uiso   1.00
Si25   Si    0.11964   0.96215   0.81154   0.00000  Uiso   1.00
Si26   Si    0.12096   0.04700   0.19290   0.00000  Uiso   1.00
Si27   Si    0.11775   0.46291   0.31011   0.00000  Uiso   1.00
Si28   Si    0.11898   0.54685   0.69319   0.00000  Uiso   1.00
Si29   Si    0.11966   0.46009   0.81028   0.00000  Uiso   1.00
Si30   Si    0.11824   0.04418   0.69311   0.00000  Uiso   1.00
Si31   Si    0.11842   0.96219   0.31028   0.00000  Uiso   1.00
Si32   Si    0.12096   0.81288   0.95805   0.00000  Uiso   1.00
Si33   Si    0.11928   0.54771   0.19233   0.00000  Uiso   1.00
Si34   Si    0.11957   0.19480   0.54623   0.00000  Uiso   1.00
Si35   Si    0.11935   0.81257   0.45814   0.00000  Uiso   1.00
Si36   Si    0.12022   0.31133   0.45709   0.00000  Uiso   1.00
Si37   Si    0.11944   0.69602   0.54564   0.00000  Uiso   1.00
Si38   Si    0.11956   0.19485   0.04322   0.00000  Uiso   1.00
Si39   Si    0.11908   0.31195   0.95959   0.00000  Uiso   1.00
Si40   Si    0.11910   0.69621   0.04379   0.00000  Uiso   1.00
Si41   Si    0.13409   0.56306   0.29306   0.00000  Uiso   1.00
Si42   Si    0.13628   0.06242   0.79318   0.00000  Uiso   1.00
Si43   Si    0.13566   0.94413   0.71158   0.00000  Uiso   1.00
Si44   Si    0.13577   0.06261   0.29319   0.00000  Uiso   1.00
Si45   Si    0.13440   0.56166   0.79393   0.00000  Uiso   1.00
Si46   Si    0.13384   0.44574   0.70980   0.00000  Uiso   1.00
Si47   Si    0.13737   0.71226   0.94351   0.00000  Uiso   1.00
Si48   Si    0.13564   0.94592   0.20988   0.00000  Uiso   1.00
Si49   Si    0.13565   0.79742   0.55904   0.00000  Uiso   1.00
Si50   Si    0.13489   0.29665   0.55771   0.00000  Uiso   1.00
Si51   Si    0.13724   0.79696   0.05863   0.00000  Uiso   1.00
Si52   Si    0.13732   0.29529   0.05949   0.00000  Uiso   1.00
Si53   Si    0.13622   0.20957   0.44553   0.00000  Uiso   1.00
Si54   Si    0.13400   0.44687   0.20913   0.00000  Uiso   1.00
Si55   Si    0.13540   0.71134   0.44508   0.00000  Uiso   1.00
Si56   Si    0.13765   0.21145   0.94335   0.00000  Uiso   1.00
Si57   Si    0.19297   0.88792   0.95896   0.00000  Uiso   1.00
Si58   Si    0.19175   0.45967   0.88563   0.00000  Uiso   1.00
Si59   Si    0.19140   0.04695   0.11677   0.00000  Uiso   1.00
Si60   Si    0.19160   0.54811   0.11775   0.00000  Uiso   1.00
Si61   Si    0.19309   0.62197   0.04444   0.00000  Uiso   1.00
Si62   Si    0.19331   0.12087   0.54664   0.00000  Uiso   1.00
Si63   Si    0.19160   0.96150   0.88624   0.00000  Uiso   1.00
Si64   Si    0.19179   0.45982   0.38401   0.00000  Uiso   1.00
Si65   Si    0.19351   0.38582   0.45673   0.00000  Uiso   1.00
Si66   Si    0.19327   0.38589   0.95928   0.00000  Uiso   1.00
Si67   Si    0.19182   0.04637   0.61925   0.00000  Uiso   1.00
Si68   Si    0.19139   0.95997   0.38481   0.00000  Uiso   1.00
Si69   Si    0.19273   0.11989   0.04286   0.00000  Uiso   1.00
Si70   Si    0.19171   0.54853   0.61854   0.00000  Uiso   1.00
Si71   Si    0.19307   0.88639   0.45804   0.00000  Uiso   1.00
Si72   Si    0.19339   0.62233   0.54602   0.00000  Uiso   1.00
Si73   Si    0.21008   0.86944   0.05916   0.00000  Uiso   1.00
Si74   Si    0.21034   0.13848   0.94317   0.00000  Uiso   1.00
Si75   Si    0.20940   0.63824   0.94369   0.00000  Uiso   1.00
Si76   Si    0.20803   0.36998   0.55779   0.00000  Uiso   1.00
Si77   Si    0.20885   0.13670   0.44598   0.00000  Uiso   1.00
Si78   Si    0.20918   0.36936   0.06012   0.00000  Uiso   1.00
Si79   Si    0.20878   0.86986   0.55882   0.00000  Uiso   1.00
Si80   Si    0.20812   0.63776   0.44533   0.00000  Uiso   1.00
Si81   Si    0.29326   0.87017   0.94280   0.00000  Uiso   1.00
Si82   Si    0.29514   0.37118   0.44391   0.00000  Uiso   1.00
Si83   Si    0.29419   0.37059   0.94539   0.00000  Uiso   1.00
Si84   Si    0.29505   0.13488   0.55928   0.00000  Uiso   1.00
Si85   Si    0.29427   0.87194   0.44422   0.00000  Uiso   1.00
Si86   Si    0.29401   0.63782   0.05874   0.00000  Uiso   1.00
Si87   Si    0.29482   0.63722   0.55910   0.00000  Uiso   1.00
Si88   Si    0.29308   0.13733   0.06007   0.00000  Uiso   1.00
Si89   Si    0.31055   0.88775   0.04311   0.00000  Uiso   1.00
Si90   Si    0.31033   0.62166   0.95778   0.00000  Uiso   1.00
Si91   Si    0.31084   0.45813   0.62019   0.00000  Uiso   1.00
Si92   Si    0.31250   0.04665   0.88597   0.00000  Uiso   1.00
Si93   Si    0.31198   0.96060   0.11735   0.00000  Uiso   1.00
Si94   Si    0.30954   0.38499   0.54584   0.00000  Uiso   1.00
Si95   Si    0.31188   0.54930   0.88476   0.00000  Uiso   1.00
Si96   Si    0.31136   0.45916   0.11891   0.00000  Uiso   1.00
Si97   Si    0.31202   0.04924   0.38408   0.00000  Uiso   1.00
Si98   Si    0.31016   0.38632   0.04627   0.00000  Uiso   1.00
Si99   Si    0.31104   0.55011   0.38321   0.00000  Uiso   1.00
Si100  Si    0.31177   0.95719   0.61953   0.00000  Uiso   1.00
Si101  Si    0.31056   0.12036   0.45831   0.00000  Uiso   1.00
Si102  Si    0.31081   0.11994   0.95986   0.00000  Uiso   1.00
Si103  Si    0.30999   0.88637   0.54524   0.00000  Uiso   1.00
Si104  Si    0.30964   0.62280   0.45761   0.00000  Uiso   1.00
Si105  Si    0.36839   0.94455   0.79409   0.00000  Uiso   1.00
Si106  Si    0.37008   0.44702   0.29302   0.00000  Uiso   1.00
Si107  Si    0.36951   0.44636   0.79566   0.00000  Uiso   1.00
Si108  Si    0.37009   0.56131   0.71004   0.00000  Uiso   1.00
Si109  Si    0.36834   0.94679   0.29281   0.00000  Uiso   1.00
Si110  Si    0.36931   0.05959   0.71041   0.00000  Uiso   1.00
Si111  Si    0.36819   0.06219   0.20914   0.00000  Uiso   1.00
Si112  Si    0.36954   0.56166   0.20768   0.00000  Uiso   1.00
Si113  Si    0.38513   0.81465   0.04479   0.00000  Uiso   1.00
Si114  Si    0.38480   0.69390   0.95669   0.00000  Uiso   1.00
Si115  Si    0.38509   0.19333   0.95911   0.00000  Uiso   1.00
Si116  Si    0.38446   0.31203   0.54700   0.00000  Uiso   1.00
Si117  Si    0.38513   0.19292   0.45686   0.00000  Uiso   1.00
Si118  Si    0.38451   0.31362   0.04750   0.00000  Uiso   1.00
Si119  Si    0.38499   0.54863   0.30860   0.00000  Uiso   1.00
Si120  Si    0.38549   0.04555   0.81108   0.00000  Uiso   1.00
Si121  Si    0.38470   0.69605   0.45652   0.00000  Uiso   1.00
Si122  Si    0.38458   0.45941   0.69463   0.00000  Uiso   1.00
Si123  Si    0.38558   0.81524   0.54636   0.00000  Uiso   1.00
Si124  Si    0.38532   0.46029   0.19212   0.00000  Uiso   1.00
Si125  Si    0.38506   0.96089   0.19210   0.00000  Uiso   1.00
Si126  Si    0.38519   0.95861   0.69330   0.00000  Uiso   1.00
Si127  Si    0.38565   0.54796   0.81115   0.00000  Uiso   1.00
Si128  Si    0.38499   0.04795   0.31005   0.00000  Uiso   1.00
Si129  Si    0.44640   0.21000   0.63551   0.00000  Uiso   1.00
Si130  Si    0.44691   0.29467   0.36826   0.00000  Uiso   1.00
Si131  Si    0.44536   0.79577   0.86913   0.00000  Uiso   1.00
Si132  Si    0.44653   0.29531   0.87021   0.00000  Uiso   1.00
Si133  Si    0.44494   0.21117   0.13521   0.00000  Uiso   1.00
Si134  Si    0.44601   0.79795   0.36841   0.00000  Uiso   1.00
Si135  Si    0.44618   0.71255   0.13335   0.00000  Uiso   1.00
Si136  Si    0.44689   0.71345   0.63511   0.00000  Uiso   1.00
Si137  Si    0.45896   0.81398   0.11776   0.00000  Uiso   1.00
Si138  Si    0.45854   0.19363   0.88565   0.00000  Uiso   1.00
Si139  Si    0.45928   0.19334   0.38444   0.00000  Uiso   1.00
Si140  Si    0.45878   0.69444   0.88538   0.00000  Uiso   1.00
Si141  Si    0.45925   0.62209   0.30920   0.00000  Uiso   1.00
Si142  Si    0.45864   0.31130   0.62019   0.00000  Uiso   1.00
Si143  Si    0.45924   0.38594   0.69386   0.00000  Uiso   1.00
Si144  Si    0.45963   0.38719   0.19127   0.00000  Uiso   1.00
Si145  Si    0.45939   0.11915   0.81234   0.00000  Uiso   1.00
Si146  Si    0.45854   0.31244   0.11878   0.00000  Uiso   1.00
Si147  Si    0.46010   0.62057   0.81191   0.00000  Uiso   1.00
Si148  Si    0.46038   0.11860   0.31087   0.00000  Uiso   1.00
Si149  Si    0.45979   0.81439   0.61883   0.00000  Uiso   1.00
Si150  Si    0.45831   0.69681   0.38319   0.00000  Uiso   1.00
Si151  Si    0.45934   0.88710   0.69307   0.00000  Uiso   1.00
Si152  Si    0.45958   0.88802   0.19137   0.00000  Uiso   1.00
Si153  Si    0.54868   0.38572   0.30851   0.00000  Uiso   1.00
Si154  Si    0.54646   0.88776   0.81158   0.00000  Uiso   1.00
Si155  Si    0.54812   0.38709   0.81133   0.00000  Uiso   1.00
Si156  Si    0.54810   0.11941   0.69345   0.00000  Uiso   1.00
Si157  Si    0.54870   0.62302   0.69477   0.00000  Uiso   1.00
Si158  Si    0.54760   0.62095   0.19178   0.00000  Uiso   1.00
Si159  Si    0.54724   0.88789   0.31039   0.00000  Uiso   1.00
Si160  Si    0.54873   0.31096   0.38221   0.00000  Uiso   1.00
Si161  Si    0.54650   0.11911   0.19204   0.00000  Uiso   1.00
Si162  Si    0.54740   0.81445   0.38391   0.00000  Uiso   1.00
Si163  Si    0.54823   0.19367   0.62049   0.00000  Uiso   1.00
Si164  Si    0.54648   0.81351   0.88540   0.00000  Uiso   1.00
Si165  Si    0.54856   0.69754   0.62095   0.00000  Uiso   1.00
Si166  Si    0.54794   0.31233   0.88382   0.00000  Uiso   1.00
Si167  Si    0.54716   0.69493   0.11890   0.00000  Uiso   1.00
Si168  Si    0.54598   0.19390   0.11870   0.00000  Uiso   1.00
Si169  Si    0.56071   0.63598   0.29284   0.00000  Uiso   1.00
Si170  Si    0.56050   0.87370   0.71039   0.00000  Uiso   1.00
Si171  Si    0.56115   0.37277   0.70997   0.00000  Uiso   1.00
Si172  Si    0.56044   0.13398   0.79515   0.00000  Uiso   1.00
Si173  Si    0.56095   0.37243   0.20731   0.00000  Uiso   1.00
Si174  Si    0.56143   0.63676   0.79569   0.00000  Uiso   1.00
Si175  Si    0.56078   0.13352   0.29319   0.00000  Uiso   1.00
Si176  Si    0.56068   0.87223   0.20918   0.00000  Uiso   1.00
Si177  Si    0.62136   0.46016   0.30818   0.00000  Uiso   1.00
Si178  Si    0.61948   0.96014   0.81113   0.00000  Uiso   1.00
Si179  Si    0.62005   0.96000   0.30974   0.00000  Uiso   1.00
Si180  Si    0.61981   0.46200   0.81091   0.00000  Uiso   1.00
Si181  Si    0.62026   0.54743   0.19215   0.00000  Uiso   1.00
Si182  Si    0.62089   0.04687   0.69408   0.00000  Uiso   1.00
Si183  Si    0.62167   0.54886   0.69515   0.00000  Uiso   1.00
Si184  Si    0.62012   0.04530   0.19257   0.00000  Uiso   1.00
Si185  Si    0.62025   0.81316   0.45813   0.00000  Uiso   1.00
Si186  Si    0.62144   0.31109   0.95677   0.00000  Uiso   1.00
Si187  Si    0.62202   0.31004   0.45672   0.00000  Uiso   1.00
Si188  Si    0.62015   0.81237   0.95870   0.00000  Uiso   1.00
Si189  Si    0.62073   0.19449   0.54564   0.00000  Uiso   1.00
Si190  Si    0.62163   0.69830   0.54637   0.00000  Uiso   1.00
Si191  Si    0.62016   0.19483   0.04489   0.00000  Uiso   1.00
Si192  Si    0.62050   0.69595   0.04649   0.00000  Uiso   1.00
Si193  Si    0.63497   0.56171   0.29283   0.00000  Uiso   1.00
Si194  Si    0.63485   0.06114   0.79468   0.00000  Uiso   1.00
Si195  Si    0.63502   0.44715   0.71040   0.00000  Uiso   1.00
Si196  Si    0.63522   0.44626   0.20752   0.00000  Uiso   1.00
Si197  Si    0.63596   0.06081   0.29291   0.00000  Uiso   1.00
Si198  Si    0.63555   0.56327   0.79559   0.00000  Uiso   1.00
Si199  Si    0.63605   0.94561   0.71056   0.00000  Uiso   1.00
Si200  Si    0.63692   0.20974   0.94427   0.00000  Uiso   1.00
Si201  Si    0.63560   0.94415   0.20928   0.00000  Uiso   1.00
Si202  Si    0.63689   0.29574   0.55793   0.00000  Uiso   1.00
Si203  Si    0.63747   0.79939   0.55911   0.00000  Uiso   1.00
Si204  Si    0.63685   0.20867   0.44500   0.00000  Uiso   1.00
Si205  Si    0.63619   0.71208   0.44527   0.00000  Uiso   1.00
Si206  Si    0.63708   0.29613   0.05774   0.00000  Uiso   1.00
Si207  Si    0.63689   0.79727   0.05957   0.00000  Uiso   1.00
Si208  Si    0.63651   0.71096   0.94592   0.00000  Uiso   1.00
Si209  Si    0.69459   0.45935   0.38365   0.00000  Uiso   1.00
Si210  Si    0.69262   0.95887   0.88551   0.00000  Uiso   1.00
Si211  Si    0.69556   0.62331   0.54608   0.00000  Uiso   1.00
Si212  Si    0.69431   0.88610   0.45718   0.00000  Uiso   1.00
Si213  Si    0.69277   0.46061   0.88595   0.00000  Uiso   1.00
Si214  Si    0.69242   0.95877   0.38418   0.00000  Uiso   1.00
Si215  Si    0.69323   0.54877   0.11816   0.00000  Uiso   1.00
Si216  Si    0.69421   0.38557   0.95708   0.00000  Uiso   1.00
Si217  Si    0.69591   0.38502   0.45698   0.00000  Uiso   1.00
Si218  Si    0.69441   0.12070   0.04486   0.00000  Uiso   1.00
Si219  Si    0.69437   0.54925   0.61941   0.00000  Uiso   1.00
Si220  Si    0.69328   0.04628   0.11809   0.00000  Uiso   1.00
Si221  Si    0.69466   0.88582   0.95835   0.00000  Uiso   1.00
Si222  Si    0.69288   0.04766   0.61958   0.00000  Uiso   1.00
Si223  Si    0.69418   0.11962   0.54537   0.00000  Uiso   1.00
Si224  Si    0.69458   0.62287   0.04666   0.00000  Uiso   1.00
Si225  Si    0.71027   0.36930   0.05796   0.00000  Uiso   1.00
Si226  Si    0.71029   0.87160   0.55774   0.00000  Uiso   1.00
Si227  Si    0.71067   0.86909   0.05898   0.00000  Uiso   1.00
Si228  Si    0.71027   0.13680   0.94447   0.00000  Uiso   1.00
Si229  Si    0.71034   0.37009   0.55823   0.00000  Uiso   1.00
Si230  Si    0.71019   0.63830   0.44494   0.00000  Uiso   1.00
Si231  Si    0.71018   0.63898   0.94601   0.00000  Uiso   1.00
Si232  Si    0.71030   0.13562   0.44531   0.00000  Uiso   1.00
Si233  Si    0.79553   0.87115   0.44337   0.00000  Uiso   1.00
Si234  Si    0.79553   0.37007   0.94285   0.00000  Uiso   1.00
Si235  Si    0.79588   0.87141   0.94405   0.00000  Uiso   1.00
Si236  Si    0.79554   0.13613   0.05832   0.00000  Uiso   1.00
Si237  Si    0.79684   0.63746   0.55923   0.00000  Uiso   1.00
Si238  Si    0.79743   0.37133   0.44442   0.00000  Uiso   1.00
Si239  Si    0.79548   0.13521   0.56036   0.00000  Uiso   1.00
Si240  Si    0.79561   0.63819   0.06050   0.00000  Uiso   1.00
Si241  Si    0.81348   0.55001   0.38396   0.00000  Uiso   1.00
Si242  Si    0.81257   0.04814   0.88367   0.00000  Uiso   1.00
Si243  Si    0.81315   0.45903   0.61923   0.00000  Uiso   1.00
Si244  Si    0.81286   0.04707   0.38422   0.00000  Uiso   1.00
Si245  Si    0.81299   0.46003   0.11788   0.00000  Uiso   1.00
Si246  Si    0.81142   0.11953   0.45941   0.00000  Uiso   1.00
Si247  Si    0.81152   0.88813   0.54418   0.00000  Uiso   1.00
Si248  Si    0.81146   0.12047   0.95731   0.00000  Uiso   1.00
Si249  Si    0.81320   0.95893   0.61931   0.00000  Uiso   1.00
Si250  Si    0.81166   0.38615   0.54580   0.00000  Uiso   1.00
Si251  Si    0.81139   0.38585   0.04426   0.00000  Uiso   1.00
Si252  Si    0.81147   0.88646   0.04501   0.00000  Uiso   1.00
Si253  Si    0.81132   0.62241   0.45780   0.00000  Uiso   1.00
Si254  Si    0.81255   0.54939   0.88567   0.00000  Uiso   1.00
Si255  Si    0.81127   0.62268   0.95905   0.00000  Uiso   1.00
Si256  Si    0.81314   0.95816   0.11850   0.00000  Uiso   1.00
Si257  Si    0.87100   0.44672   0.29338   0.00000  Uiso   1.00
Si258  Si    0.87047   0.06068   0.20902   0.00000  Uiso   1.00
Si259  Si    0.86919   0.06114   0.71133   0.00000  Uiso   1.00
Si260  Si    0.86900   0.94521   0.29253   0.00000  Uiso   1.00
Si261  Si    0.87043   0.56194   0.20958   0.00000  Uiso   1.00
Si262  Si    0.86973   0.44657   0.79463   0.00000  Uiso   1.00
Si263  Si    0.86921   0.94549   0.79377   0.00000  Uiso   1.00
Si264  Si    0.87038   0.56141   0.70992   0.00000  Uiso   1.00
Si265  Si    0.88664   0.19223   0.95656   0.00000  Uiso   1.00
Si266  Si    0.88634   0.69428   0.45691   0.00000  Uiso   1.00
Si267  Si    0.88620   0.81459   0.54616   0.00000  Uiso   1.00
Si268  Si    0.88645   0.69497   0.95789   0.00000  Uiso   1.00
Si269  Si    0.88607   0.19294   0.45873   0.00000  Uiso   1.00
Si270  Si    0.88666   0.81490   0.04636   0.00000  Uiso   1.00
Si271  Si    0.88645   0.31301   0.04469   0.00000  Uiso   1.00
Si272  Si    0.88509   0.31263   0.54713   0.00000  Uiso   1.00
Si273  Si    0.88663   0.46107   0.19266   0.00000  Uiso   1.00
Si274  Si    0.88678   0.96037   0.69321   0.00000  Uiso   1.00
Si275  Si    0.88741   0.54757   0.31053   0.00000  Uiso   1.00
Si276  Si    0.88600   0.46007   0.69373   0.00000  Uiso   1.00
Si277  Si    0.88680   0.95971   0.19189   0.00000  Uiso   1.00
Si278  Si    0.88727   0.04623   0.81166   0.00000  Uiso   1.00
Si279  Si    0.88636   0.04602   0.30976   0.00000  Uiso   1.00
Si280  Si    0.88574   0.54813   0.81068   0.00000  Uiso   1.00
Si281  Si    0.94689   0.21149   0.13461   0.00000  Uiso   1.00
Si282  Si    0.94730   0.79653   0.86903   0.00000  Uiso   1.00
Si283  Si    0.94524   0.79572   0.36785   0.00000  Uiso   1.00
Si284  Si    0.94618   0.71281   0.63545   0.00000  Uiso   1.00
Si285  Si    0.94482   0.21120   0.63669   0.00000  Uiso   1.00
Si286  Si    0.94689   0.29478   0.36801   0.00000  Uiso   1.00
Si287  Si    0.94519   0.71317   0.13567   0.00000  Uiso   1.00
Si288  Si    0.94542   0.29407   0.86788   0.00000  Uiso   1.00
Si289  Si    0.96002   0.69543   0.88531   0.00000  Uiso   1.00
Si290  Si    0.95900   0.69469   0.38427   0.00000  Uiso   1.00
Si291  Si    0.95922   0.81370   0.61980   0.00000  Uiso   1.00
Si292  Si    0.95988   0.81390   0.11870   0.00000  Uiso   1.00
Si293  Si    0.96074   0.62044   0.31115   0.00000  Uiso   1.00
Si294  Si    0.96066   0.31247   0.11791   0.00000  Uiso   1.00
Si295  Si    0.95986   0.19353   0.38505   0.00000  Uiso   1.00
Si296  Si    0.95953   0.62149   0.81119   0.00000  Uiso   1.00
Si297  Si    0.96131   0.19338   0.88495   0.00000  Uiso   1.00
Si298  Si    0.96048   0.88765   0.19197   0.00000  Uiso   1.00
Si299  Si    0.95800   0.31227   0.61971   0.00000  Uiso   1.00
Si300  Si    0.96098   0.88833   0.69341   0.00000  Uiso   1.00
Si301  Si    0.96223   0.11821   0.81211   0.00000  Uiso   1.00
Si302  Si    0.96112   0.11912   0.31101   0.00000  Uiso   1.00
Si303  Si    0.96073   0.38683   0.19182   0.00000  Uiso   1.00
Si304  Si    0.95893   0.38681   0.69279   0.00000  Uiso   1.00
Al305  Al    0.06299   0.71130   0.86786   0.00000  Uiso   1.00
Al306  Al    0.06262   0.20940   0.36895   0.00000  Uiso   1.00
Al307  Al    0.06270   0.79717   0.63611   0.00000  Uiso   1.00
Al308  Al    0.06303   0.79787   0.13486   0.00000  Uiso   1.00
Al309  Al    0.06186   0.71167   0.36777   0.00000  Uiso   1.00
Al310  Al    0.06068   0.29624   0.63461   0.00000  Uiso   1.00
Al311  Al    0.06350   0.29634   0.13533   0.00000  Uiso   1.00
Al312  Al    0.06361   0.21054   0.86748   0.00000  Uiso   1.00
Al313  Al    0.21009   0.06397   0.86776   0.00000  Uiso   1.00
Al314  Al    0.20743   0.44524   0.63358   0.00000  Uiso   1.00
Al315  Al    0.20807   0.44476   0.13479   0.00000  Uiso   1.00
Al316  Al    0.20768   0.56285   0.36916   0.00000  Uiso   1.00
Al317  Al    0.20923   0.94407   0.13478   0.00000  Uiso   1.00
Al318  Al    0.20827   0.56301   0.86920   0.00000  Uiso   1.00
Al319  Al    0.20884   0.94301   0.63540   0.00000  Uiso   1.00
Al320  Al    0.20864   0.06290   0.36956   0.00000  Uiso   1.00
Al321  Al    0.29361   0.94460   0.86796   0.00000  Uiso   1.00
Al322  Al    0.29483   0.44661   0.36829   0.00000  Uiso   1.00
Al323  Al    0.29438   0.94634   0.36785   0.00000  Uiso   1.00
Al324  Al    0.29470   0.56190   0.63489   0.00000  Uiso   1.00
Al325  Al    0.29485   0.44647   0.87006   0.00000  Uiso   1.00
Al326  Al    0.29447   0.05990   0.63552   0.00000  Uiso   1.00
Al327  Al    0.29370   0.06293   0.13509   0.00000  Uiso   1.00
Al328  Al    0.29467   0.56200   0.13365   0.00000  Uiso   1.00
Al329  Al    0.36923   0.71188   0.05948   0.00000  Uiso   1.00
Al330  Al    0.37058   0.29607   0.44319   0.00000  Uiso   1.00
Al331  Al    0.37058   0.20872   0.56024   0.00000  Uiso   1.00
Al332  Al    0.36990   0.29622   0.94487   0.00000  Uiso   1.00
Al333  Al    0.36837   0.21069   0.06201   0.00000  Uiso   1.00
Al334  Al    0.36853   0.79661   0.94181   0.00000  Uiso   1.00
Al335  Al    0.37045   0.71249   0.55982   0.00000  Uiso   1.00
Al336  Al    0.37040   0.79914   0.44341   0.00000  Uiso   1.00
Al337  Al    0.44535   0.37046   0.29347   0.00000  Uiso   1.00
Al338  Al    0.44372   0.87028   0.79539   0.00000  Uiso   1.00
Al339  Al    0.44408   0.13587   0.20817   0.00000  Uiso   1.00
Al340  Al    0.44490   0.63709   0.20670   0.00000  Uiso   1.00
Al341  Al    0.44534   0.63751   0.70977   0.00000  Uiso   1.00
Al342  Al    0.44491   0.37070   0.79653   0.00000  Uiso   1.00
Al343  Al    0.44485   0.87238   0.29407   0.00000  Uiso   1.00
Al344  Al    0.44545   0.13470   0.70928   0.00000  Uiso   1.00
Al345  Al    0.56159   0.71044   0.87065   0.00000  Uiso   1.00
Al346  Al    0.56247   0.29656   0.63488   0.00000  Uiso   1.00
Al347  Al    0.56135   0.29685   0.13305   0.00000  Uiso   1.00
Al348  Al    0.56151   0.20901   0.86928   0.00000  Uiso   1.00
Al349  Al    0.56208   0.20795   0.36891   0.00000  Uiso   1.00
Al350  Al    0.56323   0.80037   0.63498   0.00000  Uiso   1.00
Al351  Al    0.56177   0.71191   0.36828   0.00000  Uiso   1.00
Al352  Al    0.56211   0.79789   0.13454   0.00000  Uiso   1.00
Al353  Al    0.71026   0.56294   0.36878   0.00000  Uiso   1.00
Al354  Al    0.70977   0.06166   0.86925   0.00000  Uiso   1.00
Al355  Al    0.70980   0.44586   0.13262   0.00000  Uiso   1.00
Al356  Al    0.70926   0.56340   0.87116   0.00000  Uiso   1.00
Al357  Al    0.71022   0.94430   0.63556   0.00000  Uiso   1.00
Al358  Al    0.71008   0.44564   0.63445   0.00000  Uiso   1.00
Al359  Al    0.70991   0.06162   0.36849   0.00000  Uiso   1.00
Al360  Al    0.71037   0.94321   0.13468   0.00000  Uiso   1.00
Al361  Al    0.79588   0.44627   0.86942   0.00000  Uiso   1.00
Al362  Al    0.79772   0.44702   0.36900   0.00000  Uiso   1.00
Al363  Al    0.79501   0.94426   0.36701   0.00000  Uiso   1.00
Al364  Al    0.79513   0.94509   0.86751   0.00000  Uiso   1.00
Al365  Al    0.79623   0.56292   0.13486   0.00000  Uiso   1.00
Al366  Al    0.79754   0.56233   0.63431   0.00000  Uiso   1.00
Al367  Al    0.79581   0.06096   0.13426   0.00000  Uiso   1.00
Al368  Al    0.79539   0.06201   0.63673   0.00000  Uiso   1.00
Al369  Al    0.86977   0.20957   0.56171   0.00000  Uiso   1.00
Al370  Al    0.87113   0.20997   0.05919   0.00000  Uiso   1.00
Al371  Al    0.87068   0.79723   0.44296   0.00000  Uiso   1.00
Al372  Al    0.87095   0.71169   0.56001   0.00000  Uiso   1.00
Al373  Al    0.87151   0.79806   0.94346   0.00000  Uiso   1.00
Al374  Al    0.87161   0.29601   0.44402   0.00000  Uiso   1.00
Al375  Al    0.87016   0.71214   0.06094   0.00000  Uiso   1.00
Al376  Al    0.86978   0.29518   0.94195   0.00000  Uiso   1.00
Al377  Al    0.94615   0.13625   0.20846   0.00000  Uiso   1.00
Al378  Al    0.94336   0.87021   0.29388   0.00000  Uiso   1.00
Al379  Al    0.94368   0.13633   0.71014   0.00000  Uiso   1.00
Al380  Al    0.94513   0.87196   0.79605   0.00000  Uiso   1.00
Al381  Al    0.94445   0.63797   0.70918   0.00000  Uiso   1.00
Al382  Al    0.94397   0.63805   0.20912   0.00000  Uiso   1.00
Al383  Al    0.94487   0.36971   0.29397   0.00000  Uiso   1.00
Al384  Al    0.94341   0.36995   0.79496   0.00000  Uiso   1.00
O385   O     0.01470   0.61505   0.30857   0.00000  Uiso   1.00
O386   O     0.01435   0.89475   0.19411   0.00000  Uiso   1.00
O387   O     0.01332   0.61383   0.80752   0.00000  Uiso   1.00
O388   O     0.01619   0.11223   0.80987   0.00000  Uiso   1.00
O389   O     0.01498   0.11240   0.30917   0.00000  Uiso   1.00
O390   O     0.01510   0.89424   0.69436   0.00000  Uiso   1.00
O391   O     0.01457   0.39353   0.19363   0.00000  Uiso   1.00
O392   O     0.01274   0.39367   0.69593   0.00000  Uiso   1.00
O393   O     0.06251   0.14318   0.23953   0.00000  Uiso   1.00
O394   O     0.06300   0.64286   0.73966   0.00000  Uiso   1.00
O395   O     0.06225   0.85639   0.85341   0.00000  Uiso   1.00
O396   O     0.06190   0.64514   0.23853   0.00000  Uiso   1.00
O397   O     0.06026   0.85629   0.35203   0.00000  Uiso   1.00
O398   O     0.06178   0.14127   0.73907   0.00000  Uiso   1.00
O399   O     0.06297   0.35422   0.35090   0.00000  Uiso   1.00
O400   O     0.06156   0.86578   0.26396   0.00000  Uiso   1.00
O401   O     0.06303   0.15237   0.15062   0.00000  Uiso   1.00
O402   O     0.06170   0.36314   0.76407   0.00000  Uiso   1.00
O403   O     0.06012   0.35450   0.85295   0.00000  Uiso   1.00
O404   O     0.06105   0.86485   0.76556   0.00000  Uiso   1.00
O405   O     0.06030   0.15154   0.65186   0.00000  Uiso   1.00
O406   O     0.06347   0.36559   0.26338   0.00000  Uiso   1.00
O407   O     0.06036   0.65374   0.15003   0.00000  Uiso   1.00
O408   O     0.06136   0.65253   0.65106   0.00000  Uiso   1.00
O409   O     0.07303   0.07202   0.18843   0.00000  Uiso   1.00
O410   O     0.07101   0.57184   0.68920   0.00000  Uiso   1.00
O411   O     0.07190   0.43443   0.81397   0.00000  Uiso   1.00
O412   O     0.07209   0.93683   0.81583   0.00000  Uiso   1.00
O413   O     0.07080   0.93662   0.31498   0.00000  Uiso   1.00
O414   O     0.07102   0.07046   0.68750   0.00000  Uiso   1.00
O415   O     0.07320   0.81716   0.93235   0.00000  Uiso   1.00
O416   O     0.07122   0.43592   0.31569   0.00000  Uiso   1.00
O417   O     0.07207   0.57397   0.18755   0.00000  Uiso   1.00
O418   O     0.07206   0.18979   0.57229   0.00000  Uiso   1.00
O419   O     0.07180   0.81718   0.43189   0.00000  Uiso   1.00
O420   O     0.07271   0.31669   0.43110   0.00000  Uiso   1.00
O421   O     0.07278   0.18988   0.07028   0.00000  Uiso   1.00
O422   O     0.07169   0.69130   0.57114   0.00000  Uiso   1.00
O423   O     0.07197   0.31756   0.93275   0.00000  Uiso   1.00
O424   O     0.07167   0.69102   0.07008   0.00000  Uiso   1.00
O425   O     0.10352   0.60614   0.30522   0.00000  Uiso   1.00
O426   O     0.11124   0.51676   0.30948   0.00000  Uiso   1.00
O427   O     0.10234   0.90517   0.19687   0.00000  Uiso   1.00
O428   O     0.10465   0.10445   0.80638   0.00000  Uiso   1.00
O429   O     0.10073   0.60179   0.80819   0.00000  Uiso   1.00
O430   O     0.10304   0.90302   0.69799   0.00000  Uiso   1.00
O431   O     0.10390   0.10433   0.30653   0.00000  Uiso   1.00
O432   O     0.10214   0.40527   0.19498   0.00000  Uiso   1.00
O433   O     0.10116   0.40409   0.69752   0.00000  Uiso   1.00
O434   O     0.11378   0.01619   0.81041   0.00000  Uiso   1.00
O435   O     0.11208   0.81156   0.51202   0.00000  Uiso   1.00
O436   O     0.11343   0.81139   0.01183   0.00000  Uiso   1.00
O437   O     0.11260   0.99023   0.69437   0.00000  Uiso   1.00
O438   O     0.11235   0.51397   0.80821   0.00000  Uiso   1.00
O439   O     0.11133   0.49303   0.69540   0.00000  Uiso   1.00
O440   O     0.11328   0.31106   0.01345   0.00000  Uiso   1.00
O441   O     0.11283   0.01615   0.30922   0.00000  Uiso   1.00
O442   O     0.11342   0.99318   0.19446   0.00000  Uiso   1.00
O443   O     0.11325   0.19411   0.49225   0.00000  Uiso   1.00
O444   O     0.11191   0.31159   0.51078   0.00000  Uiso   1.00
O445   O     0.11174   0.69698   0.49183   0.00000  Uiso   1.00
O446   O     0.11327   0.69714   0.98982   0.00000  Uiso   1.00
O447   O     0.11332   0.19630   0.98935   0.00000  Uiso   1.00
O448   O     0.11248   0.49379   0.19230   0.00000  Uiso   1.00
O449   O     0.14312   0.94586   0.76536   0.00000  Uiso   1.00
O450   O     0.14142   0.56234   0.74008   0.00000  Uiso   1.00
O451   O     0.14173   0.06132   0.73907   0.00000  Uiso   1.00
O452   O     0.14392   0.06281   0.23954   0.00000  Uiso   1.00
O453   O     0.14240   0.44473   0.76339   0.00000  Uiso   1.00
O454   O     0.14036   0.44725   0.26318   0.00000  Uiso   1.00
O455   O     0.14176   0.94593   0.26397   0.00000  Uiso   1.00
O456   O     0.14237   0.56235   0.23937   0.00000  Uiso   1.00
O457   O     0.14402   0.76618   0.94282   0.00000  Uiso   1.00
O458   O     0.14182   0.24276   0.55922   0.00000  Uiso   1.00
O459   O     0.14201   0.76523   0.44394   0.00000  Uiso   1.00
O460   O     0.14332   0.24113   0.05935   0.00000  Uiso   1.00
O461   O     0.14152   0.74339   0.56012   0.00000  Uiso   1.00
O462   O     0.14237   0.74272   0.05950   0.00000  Uiso   1.00
O463   O     0.15032   0.94767   0.85390   0.00000  Uiso   1.00
O464   O     0.14256   0.26350   0.44426   0.00000  Uiso   1.00
O465   O     0.14273   0.26573   0.94320   0.00000  Uiso   1.00
O466   O     0.15119   0.44567   0.85217   0.00000  Uiso   1.00
O467   O     0.15197   0.85527   0.94453   0.00000  Uiso   1.00
O468   O     0.15075   0.44763   0.35062   0.00000  Uiso   1.00
O469   O     0.15099   0.06121   0.15009   0.00000  Uiso   1.00
O470   O     0.15003   0.94716   0.35191   0.00000  Uiso   1.00
O471   O     0.15031   0.56108   0.65126   0.00000  Uiso   1.00
O472   O     0.15022   0.05901   0.65179   0.00000  Uiso   1.00
O473   O     0.15296   0.35233   0.44324   0.00000  Uiso   1.00
O474   O     0.15193   0.35311   0.94582   0.00000  Uiso   1.00
O475   O     0.15125   0.56266   0.15103   0.00000  Uiso   1.00
O476   O     0.15204   0.85357   0.44406   0.00000  Uiso   1.00
O477   O     0.15301   0.15447   0.56110   0.00000  Uiso   1.00
O478   O     0.15162   0.15289   0.05627   0.00000  Uiso   1.00
O479   O     0.15203   0.65484   0.55953   0.00000  Uiso   1.00
O480   O     0.15161   0.65473   0.05765   0.00000  Uiso   1.00
O481   O     0.18463   0.68618   0.93913   0.00000  Uiso   1.00
O482   O     0.18556   0.82117   0.06330   0.00000  Uiso   1.00
O483   O     0.18359   0.82215   0.56319   0.00000  Uiso   1.00
O484   O     0.18396   0.18447   0.43973   0.00000  Uiso   1.00
O485   O     0.18480   0.32108   0.06421   0.00000  Uiso   1.00
O486   O     0.18227   0.32255   0.56430   0.00000  Uiso   1.00
O487   O     0.18267   0.68532   0.43921   0.00000  Uiso   1.00
O488   O     0.18742   0.57446   0.07034   0.00000  Uiso   1.00
O489   O     0.18598   0.18693   0.93930   0.00000  Uiso   1.00
O490   O     0.18753   0.07316   0.57212   0.00000  Uiso   1.00
O491   O     0.19464   0.89318   0.01290   0.00000  Uiso   1.00
O492   O     0.18772   0.43321   0.93299   0.00000  Uiso   1.00
O493   O     0.19285   0.11418   0.49270   0.00000  Uiso   1.00
O494   O     0.18683   0.07268   0.06909   0.00000  Uiso   1.00
O495   O     0.19457   0.11417   0.98896   0.00000  Uiso   1.00
O496   O     0.19449   0.61542   0.99063   0.00000  Uiso   1.00
O497   O     0.19466   0.39241   0.01313   0.00000  Uiso   1.00
O498   O     0.18703   0.43353   0.43132   0.00000  Uiso   1.00
O499   O     0.18743   0.57442   0.57094   0.00000  Uiso   1.00
O500   O     0.18753   0.93582   0.93385   0.00000  Uiso   1.00
O501   O     0.19411   0.39277   0.51058   0.00000  Uiso   1.00
O502   O     0.19397   0.89304   0.51194   0.00000  Uiso   1.00
O503   O     0.18722   0.93393   0.43225   0.00000  Uiso   1.00
O504   O     0.19336   0.61481   0.49222   0.00000  Uiso   1.00
O505   O     0.23927   0.86465   0.94266   0.00000  Uiso   1.00
O506   O     0.24135   0.36410   0.44278   0.00000  Uiso   1.00
O507   O     0.24034   0.36321   0.94391   0.00000  Uiso   1.00
O508   O     0.24049   0.86441   0.44305   0.00000  Uiso   1.00
O509   O     0.24007   0.64458   0.05998   0.00000  Uiso   1.00
O510   O     0.24127   0.14261   0.56032   0.00000  Uiso   1.00
O511   O     0.24101   0.64443   0.56000   0.00000  Uiso   1.00
O512   O     0.23899   0.14306   0.05967   0.00000  Uiso   1.00
O513   O     0.26434   0.86413   0.05921   0.00000  Uiso   1.00
O514   O     0.26341   0.64390   0.94223   0.00000  Uiso   1.00
O515   O     0.26327   0.36393   0.06167   0.00000  Uiso   1.00
O516   O     0.26203   0.36317   0.56038   0.00000  Uiso   1.00
O517   O     0.26459   0.14337   0.94333   0.00000  Uiso   1.00
O518   O     0.26280   0.14244   0.44473   0.00000  Uiso   1.00
O519   O     0.26194   0.64454   0.44366   0.00000  Uiso   1.00
O520   O     0.26283   0.86395   0.55991   0.00000  Uiso   1.00
O521   O     0.30996   0.89325   0.98914   0.00000  Uiso   1.00
O522   O     0.31629   0.93505   0.06948   0.00000  Uiso   1.00
O523   O     0.31069   0.39192   0.49196   0.00000  Uiso   1.00
O524   O     0.31627   0.57362   0.93317   0.00000  Uiso   1.00
O525   O     0.31592   0.43439   0.07082   0.00000  Uiso   1.00
O526   O     0.31743   0.43181   0.57282   0.00000  Uiso   1.00
O527   O     0.31639   0.07270   0.43286   0.00000  Uiso   1.00
O528   O     0.31704   0.57561   0.43112   0.00000  Uiso   1.00
O529   O     0.31021   0.61553   0.51149   0.00000  Uiso   1.00
O530   O     0.30958   0.89423   0.49145   0.00000  Uiso   1.00
O531   O     0.30949   0.61525   0.01172   0.00000  Uiso   1.00
O532   O     0.31051   0.11278   0.51210   0.00000  Uiso   1.00
O533   O     0.31574   0.93399   0.57064   0.00000  Uiso   1.00
O534   O     0.30952   0.39290   0.99245   0.00000  Uiso   1.00
O535   O     0.30990   0.11437   0.01379   0.00000  Uiso   1.00
O536   O     0.31715   0.07269   0.93356   0.00000  Uiso   1.00
O537   O     0.35223   0.85596   0.05777   0.00000  Uiso   1.00
O538   O     0.35218   0.65278   0.94313   0.00000  Uiso   1.00
O539   O     0.35098   0.35281   0.56080   0.00000  Uiso   1.00
O540   O     0.35218   0.15220   0.94568   0.00000  Uiso   1.00
O541   O     0.35378   0.05972   0.85303   0.00000  Uiso   1.00
O542   O     0.35147   0.15258   0.44333   0.00000  Uiso   1.00
O543   O     0.35198   0.35495   0.06101   0.00000  Uiso   1.00
O544   O     0.35307   0.56204   0.35074   0.00000  Uiso   1.00
O545   O     0.35265   0.44510   0.15129   0.00000  Uiso   1.00
O546   O     0.35223   0.44452   0.65313   0.00000  Uiso   1.00
O547   O     0.35337   0.06285   0.35165   0.00000  Uiso   1.00
O548   O     0.35187   0.85542   0.56037   0.00000  Uiso   1.00
O549   O     0.35328   0.94677   0.15011   0.00000  Uiso   1.00
O550   O     0.35313   0.56297   0.85217   0.00000  Uiso   1.00
O551   O     0.35161   0.65464   0.44420   0.00000  Uiso   1.00
O552   O     0.35374   0.94382   0.65140   0.00000  Uiso   1.00
O553   O     0.36252   0.44401   0.74169   0.00000  Uiso   1.00
O554   O     0.36258   0.44600   0.23930   0.00000  Uiso   1.00
O555   O     0.36240   0.56288   0.26147   0.00000  Uiso   1.00
O556   O     0.36245   0.06120   0.76433   0.00000  Uiso   1.00
O557   O     0.36187   0.94556   0.23882   0.00000  Uiso   1.00
O558   O     0.36293   0.56196   0.76381   0.00000  Uiso   1.00
O559   O     0.36267   0.94315   0.74006   0.00000  Uiso   1.00
O560   O     0.36286   0.06402   0.26321   0.00000  Uiso   1.00
O561   O     0.39128   0.99156   0.80932   0.00000  Uiso   1.00
O562   O     0.39100   0.51342   0.69398   0.00000  Uiso   1.00
O563   O     0.39167   0.49453   0.30901   0.00000  Uiso   1.00
O564   O     0.39055   0.01495   0.19381   0.00000  Uiso   1.00
O565   O     0.39054   0.99389   0.30869   0.00000  Uiso   1.00
O566   O     0.39132   0.49386   0.81030   0.00000  Uiso   1.00
O567   O     0.39126   0.51424   0.19252   0.00000  Uiso   1.00
O568   O     0.39132   0.01255   0.69457   0.00000  Uiso   1.00
O569   O     0.43288   0.81923   0.07035   0.00000  Uiso   1.00
O570   O     0.43247   0.18873   0.93302   0.00000  Uiso   1.00
O571   O     0.43149   0.31945   0.57361   0.00000  Uiso   1.00
O572   O     0.43316   0.68865   0.93278   0.00000  Uiso   1.00
O573   O     0.43261   0.18822   0.43123   0.00000  Uiso   1.00
O574   O     0.43199   0.68914   0.43030   0.00000  Uiso   1.00
O575   O     0.43287   0.31846   0.07147   0.00000  Uiso   1.00
O576   O     0.43251   0.57479   0.31547   0.00000  Uiso   1.00
O577   O     0.43324   0.81937   0.57187   0.00000  Uiso   1.00
O578   O     0.43172   0.43271   0.68706   0.00000  Uiso   1.00
O579   O     0.43297   0.07167   0.81605   0.00000  Uiso   1.00
O580   O     0.43284   0.43434   0.18762   0.00000  Uiso   1.00
O581   O     0.43304   0.93549   0.18758   0.00000  Uiso   1.00
O582   O     0.43359   0.57322   0.81529   0.00000  Uiso   1.00
O583   O     0.43377   0.07143   0.31570   0.00000  Uiso   1.00
O584   O     0.43377   0.93481   0.68843   0.00000  Uiso   1.00
O585   O     0.44361   0.26410   0.64246   0.00000  Uiso   1.00
O586   O     0.44390   0.26528   0.14138   0.00000  Uiso   1.00
O587   O     0.44507   0.24064   0.36128   0.00000  Uiso   1.00
O588   O     0.44434   0.15265   0.85262   0.00000  Uiso   1.00
O589   O     0.44462   0.24132   0.86323   0.00000  Uiso   1.00
O590   O     0.44644   0.15192   0.35150   0.00000  Uiso   1.00
O591   O     0.44415   0.74169   0.86303   0.00000  Uiso   1.00
O592   O     0.44553   0.65291   0.85307   0.00000  Uiso   1.00
O593   O     0.44592   0.76728   0.64217   0.00000  Uiso   1.00
O594   O     0.44501   0.35426   0.15060   0.00000  Uiso   1.00
O595   O     0.44513   0.35313   0.65258   0.00000  Uiso   1.00
O596   O     0.44468   0.76653   0.14018   0.00000  Uiso   1.00
O597   O     0.44631   0.65449   0.35103   0.00000  Uiso   1.00
O598   O     0.44543   0.85539   0.65138   0.00000  Uiso   1.00
O599   O     0.44399   0.74414   0.36100   0.00000  Uiso   1.00
O600   O     0.44504   0.85522   0.15043   0.00000  Uiso   1.00
O601   O     0.49473   0.31055   0.38917   0.00000  Uiso   1.00
O602   O     0.49423   0.19550   0.61435   0.00000  Uiso   1.00
O603   O     0.49350   0.81297   0.38996   0.00000  Uiso   1.00
O604   O     0.49245   0.81139   0.89164   0.00000  Uiso   1.00
O605   O     0.49408   0.31116   0.89150   0.00000  Uiso   1.00
O606   O     0.49456   0.69741   0.61404   0.00000  Uiso   1.00
O607   O     0.49200   0.19591   0.11244   0.00000  Uiso   1.00
O608   O     0.49332   0.69665   0.11129   0.00000  Uiso   1.00
O609   O     0.51319   0.61468   0.30892   0.00000  Uiso   1.00
O610   O     0.51331   0.11224   0.81120   0.00000  Uiso   1.00
O611   O     0.51312   0.39319   0.69392   0.00000  Uiso   1.00
O612   O     0.51347   0.39404   0.19233   0.00000  Uiso   1.00
O613   O     0.51409   0.11059   0.30893   0.00000  Uiso   1.00
O614   O     0.51408   0.61428   0.81015   0.00000  Uiso   1.00
O615   O     0.51303   0.89531   0.69484   0.00000  Uiso   1.00
O616   O     0.51362   0.89451   0.19299   0.00000  Uiso   1.00
O617   O     0.56276   0.15251   0.65297   0.00000  Uiso   1.00
O618   O     0.56171   0.35300   0.35010   0.00000  Uiso   1.00
O619   O     0.56155   0.65539   0.65295   0.00000  Uiso   1.00
O620   O     0.55980   0.85478   0.85266   0.00000  Uiso   1.00
O621   O     0.56154   0.14119   0.74136   0.00000  Uiso   1.00
O622   O     0.56174   0.85588   0.35177   0.00000  Uiso   1.00
O623   O     0.56212   0.36500   0.76366   0.00000  Uiso   1.00
O624   O     0.56155   0.64369   0.23916   0.00000  Uiso   1.00
O625   O     0.56046   0.86519   0.76409   0.00000  Uiso   1.00
O626   O     0.56213   0.64560   0.74213   0.00000  Uiso   1.00
O627   O     0.56263   0.35368   0.85174   0.00000  Uiso   1.00
O628   O     0.56114   0.14151   0.23942   0.00000  Uiso   1.00
O629   O     0.56227   0.36384   0.26085   0.00000  Uiso   1.00
O630   O     0.56195   0.65363   0.15087   0.00000  Uiso   1.00
O631   O     0.56024   0.15271   0.15145   0.00000  Uiso   1.00
O632   O     0.56143   0.86556   0.26307   0.00000  Uiso   1.00
O633   O     0.57439   0.43338   0.31522   0.00000  Uiso   1.00
O634   O     0.57302   0.43510   0.81569   0.00000  Uiso   1.00
O635   O     0.57126   0.93583   0.81602   0.00000  Uiso   1.00
O636   O     0.57172   0.93609   0.31487   0.00000  Uiso   1.00
O637   O     0.57288   0.57321   0.18770   0.00000  Uiso   1.00
O638   O     0.57273   0.07124   0.68868   0.00000  Uiso   1.00
O639   O     0.57292   0.07179   0.18738   0.00000  Uiso   1.00
O640   O     0.57457   0.57541   0.68846   0.00000  Uiso   1.00
O641   O     0.57236   0.81743   0.93310   0.00000  Uiso   1.00
O642   O     0.57495   0.31733   0.42979   0.00000  Uiso   1.00
O643   O     0.57344   0.31656   0.93173   0.00000  Uiso   1.00
O644   O     0.57303   0.81805   0.43169   0.00000  Uiso   1.00
O645   O     0.57391   0.18982   0.57276   0.00000  Uiso   1.00
O646   O     0.57471   0.69119   0.57343   0.00000  Uiso   1.00
O647   O     0.57293   0.18960   0.07158   0.00000  Uiso   1.00
O648   O     0.57241   0.69030   0.07105   0.00000  Uiso   1.00
O649   O     0.60048   0.60150   0.30671   0.00000  Uiso   1.00
O650   O     0.60225   0.10217   0.80882   0.00000  Uiso   1.00
O651   O     0.60041   0.40767   0.69602   0.00000  Uiso   1.00
O652   O     0.60335   0.60489   0.80840   0.00000  Uiso   1.00
O653   O     0.60270   0.40468   0.19457   0.00000  Uiso   1.00
O654   O     0.60109   0.90663   0.69682   0.00000  Uiso   1.00
O655   O     0.60322   0.10213   0.30567   0.00000  Uiso   1.00
O656   O     0.60182   0.90434   0.19459   0.00000  Uiso   1.00
O657   O     0.61367   0.51405   0.30841   0.00000  Uiso   1.00
O658   O     0.61270   0.01413   0.81040   0.00000  Uiso   1.00
O659   O     0.61407   0.49496   0.69491   0.00000  Uiso   1.00
O660   O     0.61444   0.31106   0.01063   0.00000  Uiso   1.00
O661   O     0.61426   0.81335   0.51205   0.00000  Uiso   1.00
O662   O     0.61312   0.51584   0.80946   0.00000  Uiso   1.00
O663   O     0.61355   0.01394   0.30856   0.00000  Uiso   1.00
O664   O     0.61456   0.31084   0.51058   0.00000  Uiso   1.00
O665   O     0.61384   0.81205   0.01264   0.00000  Uiso   1.00
O666   O     0.61350   0.49360   0.19271   0.00000  Uiso   1.00
O667   O     0.61363   0.19562   0.99112   0.00000  Uiso   1.00
O668   O     0.61390   0.69703   0.49256   0.00000  Uiso   1.00
O669   O     0.61360   0.19498   0.49193   0.00000  Uiso   1.00
O670   O     0.61408   0.99304   0.69515   0.00000  Uiso   1.00
O671   O     0.61348   0.69598   0.99271   0.00000  Uiso   1.00
O672   O     0.61358   0.99146   0.19403   0.00000  Uiso   1.00
O673   O     0.64367   0.44529   0.26112   0.00000  Uiso   1.00
O674   O     0.64269   0.06282   0.74108   0.00000  Uiso   1.00
O675   O     0.64307   0.56219   0.23922   0.00000  Uiso   1.00
O676   O     0.64289   0.44646   0.76415   0.00000  Uiso   1.00
O677   O     0.64323   0.06137   0.23910   0.00000  Uiso   1.00
O678   O     0.64248   0.94382   0.26314   0.00000  Uiso   1.00
O679   O     0.64269   0.94556   0.76440   0.00000  Uiso   1.00
O680   O     0.64483   0.56334   0.74202   0.00000  Uiso   1.00
O681   O     0.64319   0.76489   0.94529   0.00000  Uiso   1.00
O682   O     0.64316   0.76586   0.44420   0.00000  Uiso   1.00
O683   O     0.64387   0.24181   0.55945   0.00000  Uiso   1.00
O684   O     0.64375   0.26364   0.94254   0.00000  Uiso   1.00
O685   O     0.64426   0.26247   0.44305   0.00000  Uiso   1.00
O686   O     0.65214   0.44778   0.85229   0.00000  Uiso   1.00
O687   O     0.64462   0.74546   0.56000   0.00000  Uiso   1.00
O688   O     0.64264   0.74327   0.06092   0.00000  Uiso   1.00
O689   O     0.65309   0.44726   0.35056   0.00000  Uiso   1.00
O690   O     0.64970   0.94742   0.85436   0.00000  Uiso   1.00
O691   O     0.64308   0.24206   0.05943   0.00000  Uiso   1.00
O692   O     0.65087   0.94549   0.35196   0.00000  Uiso   1.00
O693   O     0.65216   0.56226   0.15084   0.00000  Uiso   1.00
O694   O     0.65325   0.85356   0.44315   0.00000  Uiso   1.00
O695   O     0.65368   0.35241   0.94256   0.00000  Uiso   1.00
O696   O     0.65303   0.56149   0.65254   0.00000  Uiso   1.00
O697   O     0.65182   0.06158   0.65207   0.00000  Uiso   1.00
O698   O     0.65457   0.35190   0.44417   0.00000  Uiso   1.00
O699   O     0.65215   0.05949   0.15106   0.00000  Uiso   1.00
O700   O     0.65405   0.65625   0.55877   0.00000  Uiso   1.00
O701   O     0.65383   0.15341   0.55919   0.00000  Uiso   1.00
O702   O     0.65342   0.85303   0.94517   0.00000  Uiso   1.00
O703   O     0.65358   0.15406   0.05879   0.00000  Uiso   1.00
O704   O     0.65311   0.65496   0.06079   0.00000  Uiso   1.00
O705   O     0.68457   0.18429   0.93840   0.00000  Uiso   1.00
O706   O     0.68509   0.82161   0.06387   0.00000  Uiso   1.00
O707   O     0.68591   0.82351   0.56314   0.00000  Uiso   1.00
O708   O     0.68456   0.18312   0.43949   0.00000  Uiso   1.00
O709   O     0.68451   0.32185   0.06486   0.00000  Uiso   1.00
O710   O     0.68349   0.32314   0.56417   0.00000  Uiso   1.00
O711   O     0.68300   0.68505   0.43932   0.00000  Uiso   1.00
O712   O     0.68483   0.68672   0.94088   0.00000  Uiso   1.00
O713   O     0.68795   0.57597   0.57226   0.00000  Uiso   1.00
O714   O     0.68850   0.57458   0.07065   0.00000  Uiso   1.00
O715   O     0.68813   0.43233   0.43070   0.00000  Uiso   1.00
O716   O     0.68810   0.93390   0.43218   0.00000  Uiso   1.00
O717   O     0.68757   0.07238   0.57145   0.00000  Uiso   1.00
O718   O     0.69496   0.89426   0.51083   0.00000  Uiso   1.00
O719   O     0.69543   0.89216   0.01227   0.00000  Uiso   1.00
O720   O     0.69525   0.39236   0.51088   0.00000  Uiso   1.00
O721   O     0.68866   0.07343   0.07120   0.00000  Uiso   1.00
O722   O     0.69505   0.39177   0.01097   0.00000  Uiso   1.00
O723   O     0.69534   0.61586   0.49224   0.00000  Uiso   1.00
O724   O     0.69533   0.11382   0.99116   0.00000  Uiso   1.00
O725   O     0.68741   0.43382   0.93289   0.00000  Uiso   1.00
O726   O     0.68875   0.93377   0.93348   0.00000  Uiso   1.00
O727   O     0.69531   0.11195   0.49170   0.00000  Uiso   1.00
O728   O     0.69529   0.61600   0.99286   0.00000  Uiso   1.00
O729   O     0.74169   0.86419   0.44252   0.00000  Uiso   1.00
O730   O     0.74373   0.36365   0.44294   0.00000  Uiso   1.00
O731   O     0.74151   0.36421   0.94129   0.00000  Uiso   1.00
O732   O     0.74309   0.64494   0.56045   0.00000  Uiso   1.00
O733   O     0.74162   0.14326   0.05984   0.00000  Uiso   1.00
O734   O     0.74212   0.86314   0.94425   0.00000  Uiso   1.00
O735   O     0.74140   0.14138   0.56112   0.00000  Uiso   1.00
O736   O     0.74171   0.64480   0.06195   0.00000  Uiso   1.00
O737   O     0.76430   0.86481   0.55789   0.00000  Uiso   1.00
O738   O     0.76474   0.86319   0.05976   0.00000  Uiso   1.00
O739   O     0.76421   0.14323   0.94285   0.00000  Uiso   1.00
O740   O     0.76433   0.36310   0.05931   0.00000  Uiso   1.00
O741   O     0.76420   0.36357   0.55937   0.00000  Uiso   1.00
O742   O     0.76429   0.14221   0.44434   0.00000  Uiso   1.00
O743   O     0.76406   0.64612   0.94528   0.00000  Uiso   1.00
O744   O     0.76401   0.64520   0.44394   0.00000  Uiso   1.00
O745   O     0.81711   0.43392   0.57119   0.00000  Uiso   1.00
O746   O     0.81689   0.57466   0.43237   0.00000  Uiso   1.00
O747   O     0.81636   0.07251   0.93213   0.00000  Uiso   1.00
O748   O     0.81728   0.07280   0.43202   0.00000  Uiso   1.00
O749   O     0.81728   0.43321   0.07061   0.00000  Uiso   1.00
O750   O     0.81217   0.39308   0.49199   0.00000  Uiso   1.00
O751   O     0.81655   0.93551   0.57030   0.00000  Uiso   1.00
O752   O     0.81081   0.89446   0.49016   0.00000  Uiso   1.00
O753   O     0.81113   0.89380   0.99124   0.00000  Uiso   1.00
O754   O     0.81057   0.11261   0.51323   0.00000  Uiso   1.00
O755   O     0.81582   0.57488   0.93352   0.00000  Uiso   1.00
O756   O     0.81070   0.39191   0.99033   0.00000  Uiso   1.00
O757   O     0.81687   0.93434   0.06990   0.00000  Uiso   1.00
O758   O     0.81072   0.11378   0.01119   0.00000  Uiso   1.00
O759   O     0.81120   0.61509   0.51166   0.00000  Uiso   1.00
O760   O     0.81048   0.61622   0.01301   0.00000  Uiso   1.00
O761   O     0.85295   0.85580   0.55801   0.00000  Uiso   1.00
O762   O     0.85320   0.15177   0.94235   0.00000  Uiso   1.00
O763   O     0.85387   0.85596   0.05972   0.00000  Uiso   1.00
O764   O     0.85343   0.65334   0.44365   0.00000  Uiso   1.00
O765   O     0.85483   0.06180   0.85250   0.00000  Uiso   1.00
O766   O     0.85233   0.15244   0.44518   0.00000  Uiso   1.00
O767   O     0.85273   0.35398   0.56075   0.00000  Uiso   1.00
O768   O     0.85275   0.35348   0.05862   0.00000  Uiso   1.00
O769   O     0.85507   0.56307   0.35158   0.00000  Uiso   1.00
O770   O     0.85307   0.65421   0.94496   0.00000  Uiso   1.00
O771   O     0.85389   0.44673   0.15138   0.00000  Uiso   1.00
O772   O     0.85597   0.94667   0.65050   0.00000  Uiso   1.00
O773   O     0.85446   0.44565   0.65185   0.00000  Uiso   1.00
O774   O     0.85537   0.94481   0.15005   0.00000  Uiso   1.00
O775   O     0.85401   0.06050   0.35119   0.00000  Uiso   1.00
O776   O     0.85369   0.56181   0.85239   0.00000  Uiso   1.00
O777   O     0.86333   0.44516   0.74066   0.00000  Uiso   1.00
O778   O     0.86362   0.44582   0.23946   0.00000  Uiso   1.00
O779   O     0.86371   0.94435   0.23846   0.00000  Uiso   1.00
O780   O     0.86346   0.94559   0.73977   0.00000  Uiso   1.00
O781   O     0.86359   0.06174   0.26295   0.00000  Uiso   1.00
O782   O     0.86416   0.06246   0.76533   0.00000  Uiso   1.00
O783   O     0.86453   0.56280   0.26363   0.00000  Uiso   1.00
O784   O     0.86219   0.56200   0.76365   0.00000  Uiso   1.00
O785   O     0.89300   0.51502   0.19359   0.00000  Uiso   1.00
O786   O     0.89320   0.49354   0.30947   0.00000  Uiso   1.00
O787   O     0.89192   0.01466   0.69417   0.00000  Uiso   1.00
O788   O     0.89313   0.51396   0.69581   0.00000  Uiso   1.00
O789   O     0.89272   0.01371   0.19314   0.00000  Uiso   1.00
O790   O     0.89185   0.99199   0.30852   0.00000  Uiso   1.00
O791   O     0.89183   0.99222   0.81011   0.00000  Uiso   1.00
O792   O     0.89259   0.49408   0.80865   0.00000  Uiso   1.00
O793   O     0.93456   0.69001   0.43244   0.00000  Uiso   1.00
O794   O     0.93452   0.69087   0.93297   0.00000  Uiso   1.00
O795   O     0.93463   0.18787   0.93171   0.00000  Uiso   1.00
O796   O     0.93318   0.18803   0.43205   0.00000  Uiso   1.00
O797   O     0.93405   0.81800   0.57179   0.00000  Uiso   1.00
O798   O     0.93301   0.31767   0.57194   0.00000  Uiso   1.00
O799   O     0.93385   0.31830   0.07091   0.00000  Uiso   1.00
O800   O     0.93484   0.81963   0.07092   0.00000  Uiso   1.00
O801   O     0.93541   0.07117   0.81676   0.00000  Uiso   1.00
O802   O     0.93535   0.93564   0.18726   0.00000  Uiso   1.00
O803   O     0.93535   0.93612   0.68890   0.00000  Uiso   1.00
O804   O     0.93364   0.43395   0.18729   0.00000  Uiso   1.00
O805   O     0.93519   0.57278   0.31531   0.00000  Uiso   1.00
O806   O     0.93387   0.57344   0.81364   0.00000  Uiso   1.00
O807   O     0.93410   0.43508   0.68959   0.00000  Uiso   1.00
O808   O     0.93396   0.07204   0.31500   0.00000  Uiso   1.00
O809   O     0.94420   0.76727   0.14156   0.00000  Uiso   1.00
O810   O     0.94487   0.76668   0.64307   0.00000  Uiso   1.00
O811   O     0.94739   0.65324   0.85346   0.00000  Uiso   1.00
O812   O     0.94611   0.65268   0.35241   0.00000  Uiso   1.00
O813   O     0.94550   0.26561   0.14113   0.00000  Uiso   1.00
O814   O     0.94299   0.26541   0.64266   0.00000  Uiso   1.00
O815   O     0.94702   0.15204   0.35211   0.00000  Uiso   1.00
O816   O     0.94630   0.74256   0.86172   0.00000  Uiso   1.00
O817   O     0.94331   0.74164   0.36200   0.00000  Uiso   1.00
O818   O     0.94668   0.85619   0.15000   0.00000  Uiso   1.00
O819   O     0.94751   0.85583   0.65193   0.00000  Uiso   1.00
O820   O     0.94854   0.15121   0.85307   0.00000  Uiso   1.00
O821   O     0.94535   0.23990   0.86152   0.00000  Uiso   1.00
O822   O     0.94716   0.35402   0.15047   0.00000  Uiso   1.00
O823   O     0.94506   0.35465   0.65120   0.00000  Uiso   1.00
O824   O     0.94501   0.24063   0.36204   0.00000  Uiso   1.00
O825   O     0.99461   0.81158   0.89143   0.00000  Uiso   1.00
O826   O     0.99454   0.31050   0.38921   0.00000  Uiso   1.00
O827   O     0.99225   0.19627   0.61442   0.00000  Uiso   1.00
O828   O     0.99285   0.81065   0.38979   0.00000  Uiso   1.00
O829   O     0.99404   0.19545   0.11319   0.00000  Uiso   1.00
O830   O     0.99202   0.31073   0.89042   0.00000  Uiso   1.00
O831   O     0.99374   0.69843   0.61327   0.00000  Uiso   1.00
O832   O     0.99208   0.69757   0.11291   0.00000  Uiso   1.00
O833   O     0.01389   0.69651   0.89147   0.00000  Uiso   1.00
O834   O     0.01261   0.69768   0.39105   0.00000  Uiso   1.00
O835   O     0.01295   0.81107   0.61307   0.00000  Uiso   1.00
O836   O     0.01356   0.81261   0.11171   0.00000  Uiso   1.00
O837   O     0.01343   0.19507   0.39194   0.00000  Uiso   1.00
O838   O     0.01502   0.19510   0.89116   0.00000  Uiso   1.00
O839   O     0.01444   0.31186   0.11205   0.00000  Uiso   1.00
O840   O     0.01144   0.31092   0.61198   0.00000  Uiso   1.00
O841   O     0.06348   0.76721   0.86090   0.00000  Uiso   1.00
O842   O     0.06307   0.76764   0.36093   0.00000  Uiso   1.00
O843   O     0.06392   0.26518   0.36126   0.00000  Uiso   1.00
O844   O     0.06359   0.24031   0.14159   0.00000  Uiso   1.00
O845   O     0.06864   0.18195   0.32012   0.00000  Uiso   1.00
O846   O     0.06820   0.18346   0.81817   0.00000  Uiso   1.00
O847   O     0.06307   0.26687   0.86180   0.00000  Uiso   1.00
O848   O     0.06754   0.68288   0.81952   0.00000  Uiso   1.00
O849   O     0.06767   0.32475   0.68298   0.00000  Uiso   1.00
O850   O     0.06407   0.74111   0.64224   0.00000  Uiso   1.00
O851   O     0.06867   0.68433   0.31899   0.00000  Uiso   1.00
O852   O     0.06214   0.24041   0.64235   0.00000  Uiso   1.00
O853   O     0.06739   0.82441   0.68510   0.00000  Uiso   1.00
O854   O     0.06803   0.82500   0.18401   0.00000  Uiso   1.00
O855   O     0.06878   0.32459   0.18387   0.00000  Uiso   1.00
O856   O     0.06288   0.74164   0.14083   0.00000  Uiso   1.00
O857   O     0.10516   0.69745   0.90255   0.00000  Uiso   1.00
O858   O     0.10361   0.81202   0.60032   0.00000  Uiso   1.00
O859   O     0.10521   0.81080   0.10004   0.00000  Uiso   1.00
O860   O     0.10520   0.19553   0.40332   0.00000  Uiso   1.00
O861   O     0.10409   0.69833   0.40279   0.00000  Uiso   1.00
O862   O     0.10292   0.30957   0.59957   0.00000  Uiso   1.00
O863   O     0.10707   0.19762   0.90084   0.00000  Uiso   1.00
O864   O     0.10588   0.30994   0.10102   0.00000  Uiso   1.00
O865   O     0.18057   0.56970   0.32025   0.00000  Uiso   1.00
O866   O     0.18398   0.06896   0.81808   0.00000  Uiso   1.00
O867   O     0.18294   0.93913   0.18441   0.00000  Uiso   1.00
O868   O     0.18208   0.93793   0.68452   0.00000  Uiso   1.00
O869   O     0.18194   0.07003   0.32054   0.00000  Uiso   1.00
O870   O     0.18126   0.56783   0.82017   0.00000  Uiso   1.00
O871   O     0.17995   0.43807   0.68228   0.00000  Uiso   1.00
O872   O     0.18138   0.43981   0.18402   0.00000  Uiso   1.00
O873   O     0.19255   0.49411   0.11190   0.00000  Uiso   1.00
O874   O     0.19653   0.10751   0.90089   0.00000  Uiso   1.00
O875   O     0.19298   0.51353   0.89190   0.00000  Uiso   1.00
O876   O     0.19677   0.90045   0.10150   0.00000  Uiso   1.00
O877   O     0.19453   0.40224   0.59926   0.00000  Uiso   1.00
O878   O     0.19383   0.99263   0.61273   0.00000  Uiso   1.00
O879   O     0.19325   0.01552   0.89119   0.00000  Uiso   1.00
O880   O     0.19315   0.99303   0.11183   0.00000  Uiso   1.00
O881   O     0.19255   0.01372   0.39170   0.00000  Uiso   1.00
O882   O     0.19328   0.49482   0.61123   0.00000  Uiso   1.00
O883   O     0.19428   0.10501   0.40441   0.00000  Uiso   1.00
O884   O     0.19423   0.60521   0.40414   0.00000  Uiso   1.00
O885   O     0.19293   0.51344   0.39189   0.00000  Uiso   1.00
O886   O     0.19389   0.40204   0.10067   0.00000  Uiso   1.00
O887   O     0.19385   0.90179   0.60002   0.00000  Uiso   1.00
O888   O     0.19386   0.60534   0.90353   0.00000  Uiso   1.00
O889   O     0.23763   0.94545   0.86267   0.00000  Uiso   1.00
O890   O     0.23834   0.94584   0.36170   0.00000  Uiso   1.00
O891   O     0.23899   0.44546   0.86315   0.00000  Uiso   1.00
O892   O     0.23899   0.44557   0.36149   0.00000  Uiso   1.00
O893   O     0.23891   0.56233   0.64132   0.00000  Uiso   1.00
O894   O     0.23770   0.06279   0.13999   0.00000  Uiso   1.00
O895   O     0.23858   0.06134   0.64234   0.00000  Uiso   1.00
O896   O     0.23878   0.56255   0.14016   0.00000  Uiso   1.00
O897   O     0.26344   0.56418   0.36185   0.00000  Uiso   1.00
O898   O     0.26637   0.06330   0.86282   0.00000  Uiso   1.00
O899   O     0.26558   0.94475   0.14042   0.00000  Uiso   1.00
O900   O     0.26416   0.44432   0.14079   0.00000  Uiso   1.00
O901   O     0.26341   0.44305   0.64126   0.00000  Uiso   1.00
O902   O     0.26446   0.06408   0.36292   0.00000  Uiso   1.00
O903   O     0.26436   0.56364   0.86309   0.00000  Uiso   1.00
O904   O     0.26486   0.94186   0.64150   0.00000  Uiso   1.00
O905   O     0.30783   0.90217   0.90187   0.00000  Uiso   1.00
O906   O     0.30923   0.40608   0.40493   0.00000  Uiso   1.00
O907   O     0.31080   0.49568   0.89206   0.00000  Uiso   1.00
O908   O     0.31048   0.49639   0.39017   0.00000  Uiso   1.00
O909   O     0.31074   0.51183   0.61351   0.00000  Uiso   1.00
O910   O     0.30743   0.40372   0.90468   0.00000  Uiso   1.00
O911   O     0.31061   0.99550   0.39017   0.00000  Uiso   1.00
O912   O     0.31055   0.99296   0.89152   0.00000  Uiso   1.00
O913   O     0.30744   0.90440   0.40301   0.00000  Uiso   1.00
O914   O     0.30886   0.60234   0.59820   0.00000  Uiso   1.00
O915   O     0.31079   0.01440   0.11201   0.00000  Uiso   1.00
O916   O     0.31012   0.01083   0.61316   0.00000  Uiso   1.00
O917   O     0.31038   0.51274   0.11129   0.00000  Uiso   1.00
O918   O     0.30760   0.10209   0.60050   0.00000  Uiso   1.00
O919   O     0.32060   0.68439   0.06699   0.00000  Uiso   1.00
O920   O     0.32138   0.32422   0.93706   0.00000  Uiso   1.00
O921   O     0.32077   0.93938   0.81909   0.00000  Uiso   1.00
O922   O     0.30769   0.10531   0.10104   0.00000  Uiso   1.00
O923   O     0.31935   0.82318   0.93640   0.00000  Uiso   1.00
O924   O     0.32286   0.32524   0.43575   0.00000  Uiso   1.00
O925   O     0.32390   0.43958   0.32051   0.00000  Uiso   1.00
O926   O     0.32379   0.56868   0.68271   0.00000  Uiso   1.00
O927   O     0.32287   0.68302   0.56699   0.00000  Uiso   1.00
O928   O     0.32186   0.18131   0.56785   0.00000  Uiso   1.00
O929   O     0.30751   0.60472   0.09933   0.00000  Uiso   1.00
O930   O     0.32250   0.43848   0.82150   0.00000  Uiso   1.00
O931   O     0.32124   0.82573   0.43603   0.00000  Uiso   1.00
O932   O     0.32159   0.93884   0.31908   0.00000  Uiso   1.00
O933   O     0.32059   0.06849   0.18418   0.00000  Uiso   1.00
O934   O     0.31899   0.18435   0.06676   0.00000  Uiso   1.00
O935   O     0.32251   0.06764   0.68399   0.00000  Uiso   1.00
O936   O     0.32229   0.56920   0.18216   0.00000  Uiso   1.00
O937   O     0.36264   0.76785   0.06026   0.00000  Uiso   1.00
O938   O     0.36324   0.24044   0.44270   0.00000  Uiso   1.00
O939   O     0.36314   0.26474   0.56211   0.00000  Uiso   1.00
O940   O     0.36285   0.74064   0.94085   0.00000  Uiso   1.00
O941   O     0.36276   0.24034   0.94383   0.00000  Uiso   1.00
O942   O     0.36253   0.26675   0.06285   0.00000  Uiso   1.00
O943   O     0.36301   0.74339   0.44243   0.00000  Uiso   1.00
O944   O     0.36309   0.76805   0.56027   0.00000  Uiso   1.00
O945   O     0.39131   0.31238   0.49334   0.00000  Uiso   1.00
O946   O     0.39132   0.69579   0.01032   0.00000  Uiso   1.00
O947   O     0.39171   0.31218   0.99402   0.00000  Uiso   1.00
O948   O     0.39183   0.19425   0.51051   0.00000  Uiso   1.00
O949   O     0.39117   0.19524   0.01279   0.00000  Uiso   1.00
O950   O     0.40101   0.90416   0.80950   0.00000  Uiso   1.00
O951   O     0.40407   0.40689   0.30686   0.00000  Uiso   1.00
O952   O     0.40171   0.40479   0.80894   0.00000  Uiso   1.00
O953   O     0.40448   0.60085   0.69584   0.00000  Uiso   1.00
O954   O     0.39196   0.69596   0.51020   0.00000  Uiso   1.00
O955   O     0.40105   0.10246   0.19418   0.00000  Uiso   1.00
O956   O     0.39196   0.81463   0.49276   0.00000  Uiso   1.00
O957   O     0.40218   0.10055   0.69700   0.00000  Uiso   1.00
O958   O     0.40145   0.90620   0.30651   0.00000  Uiso   1.00
O959   O     0.40532   0.19633   0.60289   0.00000  Uiso   1.00
O960   O     0.40171   0.60306   0.19415   0.00000  Uiso   1.00
O961   O     0.40773   0.30946   0.40282   0.00000  Uiso   1.00
O962   O     0.40551   0.30884   0.90298   0.00000  Uiso   1.00
O963   O     0.39105   0.81237   0.99110   0.00000  Uiso   1.00
O964   O     0.40486   0.81186   0.40076   0.00000  Uiso   1.00
O965   O     0.40362   0.19635   0.10347   0.00000  Uiso   1.00
O966   O     0.40426   0.81104   0.90087   0.00000  Uiso   1.00
O967   O     0.40737   0.69935   0.60061   0.00000  Uiso   1.00
O968   O     0.40466   0.69898   0.10131   0.00000  Uiso   1.00
O969   O     0.44451   0.64441   0.26240   0.00000  Uiso   1.00
O970   O     0.44527   0.36374   0.23784   0.00000  Uiso   1.00
O971   O     0.43805   0.18375   0.68220   0.00000  Uiso   1.00
O972   O     0.43813   0.68621   0.17988   0.00000  Uiso   1.00
O973   O     0.43945   0.18561   0.18253   0.00000  Uiso   1.00
O974   O     0.44448   0.14125   0.26436   0.00000  Uiso   1.00
O975   O     0.44368   0.36365   0.74050   0.00000  Uiso   1.00
O976   O     0.44517   0.14159   0.76514   0.00000  Uiso   1.00
O977   O     0.44486   0.86550   0.23826   0.00000  Uiso   1.00
O978   O     0.44525   0.64404   0.76544   0.00000  Uiso   1.00
O979   O     0.44386   0.86432   0.73946   0.00000  Uiso   1.00
O980   O     0.43960   0.82098   0.82177   0.00000  Uiso   1.00
O981   O     0.43860   0.32232   0.32228   0.00000  Uiso   1.00
O982   O     0.43781   0.32170   0.82363   0.00000  Uiso   1.00
O983   O     0.43809   0.82375   0.32147   0.00000  Uiso   1.00
O984   O     0.43878   0.68562   0.68099   0.00000  Uiso   1.00
O985   O     0.49491   0.39230   0.30973   0.00000  Uiso   1.00
O986   O     0.49266   0.89373   0.81083   0.00000  Uiso   1.00
O987   O     0.49435   0.39268   0.81104   0.00000  Uiso   1.00
O988   O     0.49447   0.11244   0.69331   0.00000  Uiso   1.00
O989   O     0.49399   0.61473   0.19168   0.00000  Uiso   1.00
O990   O     0.49503   0.61589   0.69363   0.00000  Uiso   1.00
O991   O     0.51279   0.81321   0.11153   0.00000  Uiso   1.00
O992   O     0.49364   0.89539   0.31009   0.00000  Uiso   1.00
O993   O     0.49288   0.11259   0.19258   0.00000  Uiso   1.00
O994   O     0.51229   0.69549   0.89353   0.00000  Uiso   1.00
O995   O     0.51226   0.19434   0.89202   0.00000  Uiso   1.00
O996   O     0.51233   0.31194   0.61335   0.00000  Uiso   1.00
O997   O     0.51277   0.19423   0.39157   0.00000  Uiso   1.00
O998   O     0.51202   0.69653   0.39032   0.00000  Uiso   1.00
O999   O     0.51352   0.81432   0.61244   0.00000  Uiso   1.00
O1000  O     0.51201   0.31168   0.11044   0.00000  Uiso   1.00
O1001  O     0.56837   0.68203   0.32076   0.00000  Uiso   1.00
O1002  O     0.56244   0.76762   0.36102   0.00000  Uiso   1.00
O1003  O     0.56333   0.74451   0.64321   0.00000  Uiso   1.00
O1004  O     0.56764   0.82665   0.68461   0.00000  Uiso   1.00
O1005  O     0.56332   0.26363   0.36055   0.00000  Uiso   1.00
O1006  O     0.56222   0.26492   0.86184   0.00000  Uiso   1.00
O1007  O     0.56924   0.32671   0.68222   0.00000  Uiso   1.00
O1008  O     0.56848   0.32540   0.18113   0.00000  Uiso   1.00
O1009  O     0.56178   0.24092   0.14077   0.00000  Uiso   1.00
O1010  O     0.56707   0.68417   0.82129   0.00000  Uiso   1.00
O1011  O     0.56297   0.24093   0.64274   0.00000  Uiso   1.00
O1012  O     0.56257   0.74194   0.14078   0.00000  Uiso   1.00
O1013  O     0.56783   0.18122   0.82067   0.00000  Uiso   1.00
O1014  O     0.56130   0.76639   0.86288   0.00000  Uiso   1.00
O1015  O     0.56690   0.82508   0.18344   0.00000  Uiso   1.00
O1016  O     0.56809   0.18005   0.32012   0.00000  Uiso   1.00
O1017  O     0.60509   0.19604   0.90262   0.00000  Uiso   1.00
O1018  O     0.60409   0.69730   0.90492   0.00000  Uiso   1.00
O1019  O     0.60435   0.81242   0.10018   0.00000  Uiso   1.00
O1020  O     0.60527   0.19522   0.40297   0.00000  Uiso   1.00
O1021  O     0.60314   0.31013   0.59802   0.00000  Uiso   1.00
O1022  O     0.60426   0.30949   0.09871   0.00000  Uiso   1.00
O1023  O     0.60270   0.69801   0.40485   0.00000  Uiso   1.00
O1024  O     0.60602   0.81309   0.60096   0.00000  Uiso   1.00
O1025  O     0.68082   0.56907   0.32102   0.00000  Uiso   1.00
O1026  O     0.68148   0.06875   0.82110   0.00000  Uiso   1.00
O1027  O     0.68095   0.43952   0.68243   0.00000  Uiso   1.00
O1028  O     0.68256   0.06882   0.31962   0.00000  Uiso   1.00
O1029  O     0.68274   0.56853   0.82175   0.00000  Uiso   1.00
O1030  O     0.68255   0.93849   0.68395   0.00000  Uiso   1.00
O1031  O     0.68261   0.93800   0.18323   0.00000  Uiso   1.00
O1032  O     0.68201   0.43874   0.18109   0.00000  Uiso   1.00
O1033  O     0.69384   0.01275   0.89222   0.00000  Uiso   1.00
O1034  O     0.69453   0.49514   0.11009   0.00000  Uiso   1.00
O1035  O     0.69701   0.40231   0.09888   0.00000  Uiso   1.00
O1036  O     0.69427   0.51412   0.89423   0.00000  Uiso   1.00
O1037  O     0.69420   0.01251   0.39094   0.00000  Uiso   1.00
O1038  O     0.69510   0.99254   0.11170   0.00000  Uiso   1.00
O1039  O     0.69660   0.90364   0.59903   0.00000  Uiso   1.00
O1040  O     0.69491   0.51312   0.39111   0.00000  Uiso   1.00
O1041  O     0.69622   0.10475   0.90309   0.00000  Uiso   1.00
O1042  O     0.69590   0.90142   0.09982   0.00000  Uiso   1.00
O1043  O     0.69464   0.99394   0.61298   0.00000  Uiso   1.00
O1044  O     0.69441   0.49540   0.61226   0.00000  Uiso   1.00
O1045  O     0.69614   0.60417   0.40500   0.00000  Uiso   1.00
O1046  O     0.69651   0.60610   0.90531   0.00000  Uiso   1.00
O1047  O     0.69633   0.40415   0.59831   0.00000  Uiso   1.00
O1048  O     0.69713   0.10452   0.40287   0.00000  Uiso   1.00
O1049  O     0.73917   0.94491   0.86205   0.00000  Uiso   1.00
O1050  O     0.74197   0.44546   0.36191   0.00000  Uiso   1.00
O1051  O     0.73972   0.44553   0.86361   0.00000  Uiso   1.00
O1052  O     0.73905   0.94361   0.36149   0.00000  Uiso   1.00
O1053  O     0.74022   0.56341   0.14060   0.00000  Uiso   1.00
O1054  O     0.74168   0.56288   0.64162   0.00000  Uiso   1.00
O1055  O     0.73987   0.06176   0.14109   0.00000  Uiso   1.00
O1056  O     0.73940   0.06382   0.64179   0.00000  Uiso   1.00
O1057  O     0.76602   0.56378   0.36169   0.00000  Uiso   1.00
O1058  O     0.76546   0.06328   0.86170   0.00000  Uiso   1.00
O1059  O     0.76620   0.94414   0.64165   0.00000  Uiso   1.00
O1060  O     0.76579   0.44496   0.13983   0.00000  Uiso   1.00
O1061  O     0.76581   0.44529   0.64160   0.00000  Uiso   1.00
O1062  O     0.76593   0.06257   0.36188   0.00000  Uiso   1.00
O1063  O     0.76515   0.56307   0.86292   0.00000  Uiso   1.00
O1064  O     0.76641   0.94275   0.14104   0.00000  Uiso   1.00
O1065  O     0.81044   0.40386   0.90339   0.00000  Uiso   1.00
O1066  O     0.80999   0.90301   0.40216   0.00000  Uiso   1.00
O1067  O     0.81256   0.49644   0.39133   0.00000  Uiso   1.00
O1068  O     0.80918   0.90429   0.90351   0.00000  Uiso   1.00
O1069  O     0.81069   0.99453   0.89050   0.00000  Uiso   1.00
O1070  O     0.81104   0.49561   0.89214   0.00000  Uiso   1.00
O1071  O     0.81095   0.99337   0.38992   0.00000  Uiso   1.00
O1072  O     0.81081   0.40459   0.40385   0.00000  Uiso   1.00
O1073  O     0.81238   0.51267   0.61186   0.00000  Uiso   1.00
O1074  O     0.81150   0.51373   0.11155   0.00000  Uiso   1.00
O1075  O     0.81150   0.01181   0.11215   0.00000  Uiso   1.00
O1076  O     0.81122   0.01285   0.61401   0.00000  Uiso   1.00
O1077  O     0.82439   0.43947   0.31996   0.00000  Uiso   1.00
O1078  O     0.82181   0.82424   0.43803   0.00000  Uiso   1.00
O1079  O     0.80838   0.10364   0.09969   0.00000  Uiso   1.00
O1080  O     0.82073   0.18263   0.56641   0.00000  Uiso   1.00
O1081  O     0.81088   0.60406   0.59934   0.00000  Uiso   1.00
O1082  O     0.82239   0.44141   0.82016   0.00000  Uiso   1.00
O1083  O     0.81072   0.60497   0.10046   0.00000  Uiso   1.00
O1084  O     0.82167   0.93942   0.31788   0.00000  Uiso   1.00
O1085  O     0.82193   0.06791   0.68586   0.00000  Uiso   1.00
O1086  O     0.82353   0.06868   0.18290   0.00000  Uiso   1.00
O1087  O     0.82169   0.93972   0.81866   0.00000  Uiso   1.00
O1088  O     0.82309   0.56763   0.18401   0.00000  Uiso   1.00
O1089  O     0.82208   0.68484   0.56581   0.00000  Uiso   1.00
O1090  O     0.81009   0.10320   0.60141   0.00000  Uiso   1.00
O1091  O     0.82210   0.18278   0.06668   0.00000  Uiso   1.00
O1092  O     0.82206   0.82439   0.93792   0.00000  Uiso   1.00
O1093  O     0.82363   0.32449   0.43621   0.00000  Uiso   1.00
O1094  O     0.82331   0.56746   0.68401   0.00000  Uiso   1.00
O1095  O     0.82125   0.68535   0.06666   0.00000  Uiso   1.00
O1096  O     0.82108   0.32279   0.93602   0.00000  Uiso   1.00
O1097  O     0.86386   0.74223   0.94394   0.00000  Uiso   1.00
O1098  O     0.86451   0.74136   0.44200   0.00000  Uiso   1.00
O1099  O     0.86394   0.23921   0.94193   0.00000  Uiso   1.00
O1100  O     0.86421   0.24012   0.44326   0.00000  Uiso   1.00
O1101  O     0.86419   0.26598   0.05971   0.00000  Uiso   1.00
O1102  O     0.86314   0.26562   0.56220   0.00000  Uiso   1.00
O1103  O     0.86330   0.76760   0.56034   0.00000  Uiso   1.00
O1104  O     0.86423   0.76811   0.06127   0.00000  Uiso   1.00
O1105  O     0.89264   0.19360   0.01021   0.00000  Uiso   1.00
O1106  O     0.89361   0.81184   0.49255   0.00000  Uiso   1.00
O1107  O     0.90289   0.10213   0.19611   0.00000  Uiso   1.00
O1108  O     0.89365   0.69693   0.51051   0.00000  Uiso   1.00
O1109  O     0.90110   0.90452   0.30790   0.00000  Uiso   1.00
O1110  O     0.90115   0.10215   0.69646   0.00000  Uiso   1.00
O1111  O     0.89272   0.19490   0.51233   0.00000  Uiso   1.00
O1112  O     0.89323   0.31145   0.49364   0.00000  Uiso   1.00
O1113  O     0.90193   0.40410   0.30626   0.00000  Uiso   1.00
O1114  O     0.89394   0.81371   0.99282   0.00000  Uiso   1.00
O1115  O     0.89262   0.69633   0.01169   0.00000  Uiso   1.00
O1116  O     0.90229   0.40576   0.80926   0.00000  Uiso   1.00
O1117  O     0.90274   0.60254   0.69673   0.00000  Uiso   1.00
O1118  O     0.90131   0.90447   0.80816   0.00000  Uiso   1.00
O1119  O     0.89221   0.31215   0.99094   0.00000  Uiso   1.00
O1120  O     0.90220   0.60314   0.19477   0.00000  Uiso   1.00
O1121  O     0.90676   0.81054   0.90183   0.00000  Uiso   1.00
O1122  O     0.90599   0.81150   0.40161   0.00000  Uiso   1.00
O1123  O     0.90443   0.19628   0.60393   0.00000  Uiso   1.00
O1124  O     0.90693   0.30846   0.40192   0.00000  Uiso   1.00
O1125  O     0.90529   0.19803   0.10251   0.00000  Uiso   1.00
O1126  O     0.90611   0.69919   0.60188   0.00000  Uiso   1.00
O1127  O     0.90475   0.30889   0.90025   0.00000  Uiso   1.00
O1128  O     0.90504   0.69806   0.10272   0.00000  Uiso   1.00
O1129  O     0.93883   0.18540   0.18157   0.00000  Uiso   1.00
O1130  O     0.93858   0.68734   0.18269   0.00000  Uiso   1.00
O1131  O     0.93853   0.18583   0.68400   0.00000  Uiso   1.00
O1132  O     0.93930   0.68717   0.68254   0.00000  Uiso   1.00
O1133  O     0.94546   0.14152   0.76619   0.00000  Uiso   1.00
O1134  O     0.94459   0.64533   0.76498   0.00000  Uiso   1.00
O1135  O     0.94401   0.64353   0.26514   0.00000  Uiso   1.00
O1136  O     0.94597   0.14243   0.26451   0.00000  Uiso   1.00
O1137  O     0.94683   0.86465   0.74003   0.00000  Uiso   1.00
O1138  O     0.94408   0.86462   0.23795   0.00000  Uiso   1.00
O1139  O     0.94495   0.36328   0.23796   0.00000  Uiso   1.00
O1140  O     0.94087   0.82191   0.82170   0.00000  Uiso   1.00
O1141  O     0.94265   0.36411   0.73896   0.00000  Uiso   1.00
O1142  O     0.93862   0.82122   0.32074   0.00000  Uiso   1.00
O1143  O     0.93869   0.32057   0.82121   0.00000  Uiso   1.00
O1144  O     0.93750   0.32076   0.32131   0.00000  Uiso   1.00
O1145  O     0.99505   0.11372   0.19253   0.00000  Uiso   1.00
O1146  O     0.99195   0.89382   0.30995   0.00000  Uiso   1.00
O1147  O     0.99306   0.39291   0.80908   0.00000  Uiso   1.00
O1148  O     0.99377   0.61458   0.69502   0.00000  Uiso   1.00
O1149  O     0.99197   0.11310   0.69290   0.00000  Uiso   1.00
O1150  O     0.99368   0.89480   0.81241   0.00000  Uiso   1.00
O1151  O     0.99386   0.39152   0.31010   0.00000  Uiso   1.00
O1152  O     0.99298   0.61573   0.19273   0.00000  Uiso   1.00
Cs1153 Cs    0.12197   0.52603   0.48130   0.00000  Uiso   1.00
Cs1154 Cs    0.16865   0.33348   0.67130   0.00000  Uiso   1.00
Cs1155 Cs    0.15656   0.32471   0.85124   0.00000  Uiso   1.00
Cs1156 Cs    0.42708   0.42973   0.57747   0.00000  Uiso   1.00
Cs1157 Cs    0.58610   0.42101   0.41787   0.00000  Uiso   1.00
Cs1158 Cs    0.17308   0.84490   0.83831   0.00000  Uiso   1.00
Cs1159 Cs    0.67247   0.17735   0.33382   0.00000  Uiso   1.00
Cs1160 Cs    0.34169   0.33798   0.66892   0.00000  Uiso   1.00
Cs1161 Cs    0.40654   0.60435   0.59888   0.00000  Uiso   1.00
Cs1162 Cs    0.85382   0.16661   0.83069   0.00000  Uiso   1.00
Cs1163 Cs    0.90902   0.76418   0.74886   0.00000  Uiso   1.00
Cs1164 Cs    0.35879   0.18331   0.30981   0.00000  Uiso   1.00
Cs1165 Cs    0.58521   0.02155   0.91733   0.00000  Uiso   1.00
Cs1166 Cs    0.33391   0.67487   0.17663   0.00000  Uiso   1.00
Cs1167 Cs    0.33335   0.33459   0.83735   0.00000  Uiso   1.00
Cs1168 Cs    0.68440   0.16929   0.65430   0.00000  Uiso   1.00
Cs1169 Cs    0.33740   0.33955   0.16496   0.00000  Uiso   1.00
Cs1170 Cs    0.35388   0.99936   0.50028   0.00000  Uiso   1.00
Cs1171 Cs    0.83631   0.17158   0.16826   0.00000  Uiso   1.00
Cs1172 Cs    0.33539   0.83597   0.67117   0.00000  Uiso   1.00
Cs1173 Cs    0.65640   0.99231   0.51140   0.00000  Uiso   1.00
Cs1174 Cs    0.16427   0.68327   0.68253   0.00000  Uiso   1.00
Cs1175 Cs    0.66975   0.83339   0.33367   0.00000  Uiso   1.00
Cs1176 Cs    0.83420   0.83460   0.17207   0.00000  Uiso   1.00
Cs1177 Cs    0.65782   0.15738   0.15667   0.00000  Uiso   1.00
Cs1178 Cs    0.17833   0.17923   0.32728   0.00000  Uiso   1.00
Cs1179 Cs    0.17766   0.67522   0.33092   0.00000  Uiso   1.00
Cs1180 Cs    0.67168   0.33639   0.17705   0.00000  Uiso   1.00
Cs1181 Cs    0.65392   0.51211  -0.00300   0.00000  Uiso   1.00
Cs1182 Cs    0.42125   0.58816   0.41830   0.00000  Uiso   1.00
Cs1183 Cs    0.15551   0.15358   0.68976   0.00000  Uiso   1.00
Cs1184 Cs    0.86861   0.51871   0.50624   0.00000  Uiso   1.00
Cs1185 Cs    0.91962   0.59077   0.08543   0.00000  Uiso   1.00
Cs1186 Cs    0.15735   0.67362   0.15575   0.00000  Uiso   1.00
Cs1187 Cs    0.58531   0.58968   0.58392   0.00000  Uiso   1.00
Cs1188 Cs    0.66927   0.67205   0.17151   0.00000  Uiso   1.00
Cs1189 Cs    0.82932   0.33672   0.33235   0.00000  Uiso   1.00
Cs1190 Cs    0.91994   0.41505   0.93150   0.00000  Uiso   1.00
Cs1191 Cs    0.76439   0.77499   0.60846   0.00000  Uiso   1.00
Cs1192 Cs    0.08994   0.06221   0.44559   0.00000  Uiso   1.00
Cs1193 Cs    0.84868   0.15819   0.34717   0.00000  Uiso   1.00
Cs1194 Cs    0.68025   0.35276   0.83023   0.00000  Uiso   1.00
Cs1195 Cs    0.33399   0.82714   0.33142   0.00000  Uiso   1.00
Cs1196 Cs    0.35128   0.50899   0.00572   0.00000  Uiso   1.00
Cs1197 Cs    0.08427   0.59639   0.93114   0.00000  Uiso   1.00
Cs1198 Cs    0.84989   0.34945   0.15715   0.00000  Uiso   1.00
Cs1199 Cs    0.33377   0.67725   0.83712   0.00000  Uiso   1.00
Cs1200 Cs    0.60092   0.76910   0.76316   0.00000  Uiso   1.00
Cs1201 Cs    0.60036   0.40772   0.59770   0.00000  Uiso   1.00
Cs1202 Cs    0.75005   0.76034   0.91201   0.00000  Uiso   1.00
Cs1203 Cs    0.40769   0.40802   0.40254   0.00000  Uiso   1.00
Cs1204 Cs    0.17218   0.35797   0.30134   0.00000  Uiso   1.00
Cs1205 Cs    0.08298   0.41933   0.08467   0.00000  Uiso   1.00
Cs1206 Cs    0.32548   0.84960   0.15355   0.00000  Uiso   1.00
Cs1207 Cs    0.00012   0.73086   0.50335   0.00000  Uiso   1.00
Cs1208 Cs    0.91789   0.05994   0.59879   0.00000  Uiso   1.00
Cs1209 Cs   -0.00033   0.50896   0.73834   0.00000  Uiso   1.00
Cs1210 Cs    0.51395  -0.00816   0.65275   0.00000  Uiso   1.00
Cs1211 Cs    0.41104   0.07980   0.07748   0.00000  Uiso   1.00
Cs1212 Cs    0.01748   0.99571   0.14314   0.00000  Uiso   1.00
Cs1213 Cs    0.50617   0.66211   0.99875   0.00000  Uiso   1.00
Cs1214 Cs    0.67686   0.17551   0.82906   0.00000  Uiso   1.00
Cs1215 Cs    0.85785  -0.00857  -0.01660   0.00000  Uiso   1.00
Cs1216 Cs    0.58636   0.91646   0.08720   0.00000  Uiso   1.00
Cs1217 Cs    0.33394   0.16777   0.67114   0.00000  Uiso   1.00
Cs1218 Cs    0.84418   0.32502   0.67427   0.00000  Uiso   1.00
Cs1219 Cs    0.84469   0.66949   0.31688   0.00000  Uiso   1.00
Cs1220 Cs    0.17481   0.17185   0.14933   0.00000  Uiso   1.00
Cs1221 Cs    0.76054   0.59942   0.76135   0.00000  Uiso   1.00
Cs1222 Cs    0.41048   0.91814   0.92123   0.00000  Uiso   1.00
Cs1223 Cs    0.15703   0.85035   0.31455   0.00000  Uiso   1.00
Cs1224 Cs    1.00457   0.84106   0.99906   0.00000  Uiso   1.00
Cs1225 Cs    0.08077   0.06708   0.92200   0.00000  Uiso   1.00
Cs1226 Cs    0.50167  -0.00018   0.35292   0.00000  Uiso   1.00
Cs1227 Cs    0.50512   0.35133   1.00368   0.00000  Uiso   1.00
Cs1228 Cs    1.00028   0.34274   0.49791   0.00000  Uiso   1.00
Cs1229 Cs    0.07987   0.92323   0.59923   0.00000  Uiso   1.00
Cs1230 Cs    0.33315   0.15541   0.84946   0.00000  Uiso   1.00
Cs1231 Cs    0.59894   0.60174   0.40345   0.00000  Uiso   1.00
Cs1232 Cs    0.91403   0.92323   0.41625   0.00000  Uiso   1.00
loop_
_geom_bond_atom_site_label_1
_geom_bond_atom_site_label_2
_geom_bond_distance
_geom_bond_site_symmetry_2
_ccdc_geom_bond_type
Si1    O393    1.612   .     S
Si1    O401    1.613   .     S
Si1    O409    1.611   .     S
Si1    O1145   1.604   1_455 S
Si2    O397    1.616   .     S
Si2    O400    1.614   .     S
Si2    O413    1.612   .     S
Si2    O1146   1.602   1_455 S
Si3    O395    1.614   .     S
Si3    O404    1.612   .     S
Si3    O412    1.608   .     S
Si3    O1150   1.601   1_455 S
Si4    O402    1.613   .     S
Si4    O403    1.615   .     S
Si4    O411    1.613   .     S
Si4    O1147   1.605   1_455 S
Si5    O395    1.611   .     S
Si5    O415    1.615   .     S
Si5    O825    1.612   1_455 S
Si5    O841    1.606   .     S
Si6    O394    1.609   .     S
Si6    O408    1.612   .     S
Si6    O410    1.609   .     S
Si6    O1148   1.604   1_455 S
Si7    O399    1.614   .     S
Si7    O406    1.613   .     S
Si7    O416    1.608   .     S
Si7    O1151   1.601   1_455 S
Si8    O398    1.614   .     S
Si8    O405    1.617   .     S
Si8    O414    1.613   .     S
Si8    O1149   1.601   1_455 S
Si9    O396    1.613   .     S
Si9    O407    1.616   .     S
Si9    O417    1.609   .     S
Si9    O1152   1.603   1_455 S
Si10   O399    1.612   .     S
Si10   O420    1.614   .     S
Si10   O826    1.615   1_455 S
Si10   O843    1.605   .     S
Si11   O397    1.616   .     S
Si11   O419    1.616   .     S
Si11   O828    1.614   1_455 S
Si11   O842    1.607   .     S
Si12   O405    1.617   .     S
Si12   O418    1.616   .     S
Si12   O827    1.613   1_455 S
Si12   O852    1.610   .     S
Si13   O401    1.616   .     S
Si13   O421    1.613   .     S
Si13   O829    1.611   1_455 S
Si13   O844    1.609   .     S
Si14   O403    1.617   .     S
Si14   O423    1.617   .     S
Si14   O830    1.610   1_455 S
Si14   O847    1.610   .     S
Si15   O408    1.612   .     S
Si15   O422    1.613   .     S
Si15   O831    1.612   1_455 S
Si15   O850    1.606   .     S
Si16   O407    1.615   .     S
Si16   O424    1.618   .     S
Si16   O832    1.611   1_455 S
Si16   O856    1.608   .     S
Si17   O387    1.617   .     S
Si17   O394    1.613   .     S
Si17   O429    1.609   .     S
Si17   O848    1.605   .     S
Si18   O385    1.610   .     S
Si18   O396    1.614   .     S
Si18   O425    1.608   .     S
Si18   O851    1.610   .     S
Si19   O389    1.613   .     S
Si19   O393    1.612   .     S
Si19   O431    1.607   .     S
Si19   O845    1.607   .     S
Si20   O388    1.612   .     S
Si20   O398    1.616   .     S
Si20   O428    1.608   .     S
Si20   O846    1.610   .     S
Si21   O386    1.616   .     S
Si21   O400    1.617   .     S
Si21   O427    1.608   .     S
Si21   O854    1.608   .     S
Si22   O390    1.615   .     S
Si22   O404    1.610   .     S
Si22   O430    1.608   .     S
Si22   O853    1.608   .     S
Si23   O392    1.611   .     S
Si23   O402    1.613   .     S
Si23   O433    1.611   .     S
Si23   O849    1.612   .     S
Si24   O391    1.613   .     S
Si24   O406    1.613   .     S
Si24   O432    1.609   .     S
Si24   O855    1.609   .     S
Si25   O412    1.604   .     S
Si25   O434    1.612   1_565 S
Si25   O449    1.612   .     S
Si25   O463    1.610   .     S
Si26   O409    1.609   .     S
Si26   O442    1.613   1_545 S
Si26   O452    1.611   .     S
Si26   O469    1.610   .     S
Si27   O416    1.605   .     S
Si27   O426    1.609   .     S
Si27   O454    1.614   .     S
Si27   O468    1.615   .     S
Si28   O410    1.609   .     S
Si28   O439    1.614   .     S
Si28   O450    1.609   .     S
Si28   O471    1.611   .     S
Si29   O411    1.613   .     S
Si29   O438    1.614   .     S
Si29   O453    1.612   .     S
Si29   O466    1.613   .     S
Si30   O414    1.611   .     S
Si30   O437    1.609   1_545 S
Si30   O451    1.613   .     S
Si30   O472    1.614   .     S
Si31   O413    1.611   .     S
Si31   O441    1.609   1_565 S
Si31   O455    1.613   .     S
Si31   O470    1.614   .     S
Si32   O415    1.614   .     S
Si32   O436    1.612   1_556 S
Si32   O457    1.609   .     S
Si32   O467    1.610   .     S
Si33   O417    1.609   .     S
Si33   O448    1.612   .     S
Si33   O456    1.613   .     S
Si33   O475    1.614   .     S
Si34   O418    1.616   .     S
Si34   O443    1.613   .     S
Si34   O458    1.615   .     S
Si34   O477    1.615   .     S
Si35   O419    1.617   .     S
Si35   O435    1.614   .     S
Si35   O459    1.612   .     S
Si35   O476    1.612   .     S
Si36   O420    1.614   .     S
Si36   O444    1.613   .     S
Si36   O464    1.611   .     S
Si36   O473    1.611   .     S
Si37   O422    1.613   .     S
Si37   O445    1.614   .     S
Si37   O461    1.608   .     S
Si37   O479    1.611   .     S
Si38   O421    1.612   .     S
Si38   O447    1.610   1_554 S
Si38   O460    1.615   .     S
Si38   O478    1.614   .     S
Si39   O423    1.617   .     S
Si39   O440    1.608   1_556 S
Si39   O465    1.614   .     S
Si39   O474    1.616   .     S
Si40   O424    1.618   .     S
Si40   O446    1.611   1_554 S
Si40   O462    1.611   .     S
Si40   O480    1.616   .     S
Si41   O425    1.608   .     S
Si41   O426    1.608   .     S
Si41   O456    1.613   .     S
Si41   O865    1.609   .     S
Si42   O428    1.608   .     S
Si42   O434    1.610   .     S
Si42   O451    1.615   .     S
Si42   O866    1.608   .     S
Si43   O430    1.608   .     S
Si43   O437    1.612   .     S
Si43   O449    1.612   .     S
Si43   O868    1.606   .     S
Si44   O431    1.606   .     S
Si44   O441    1.610   .     S
Si44   O452    1.611   .     S
Si44   O869    1.607   .     S
Si45   O429    1.610   .     S
Si45   O438    1.616   .     S
Si45   O450    1.612   .     S
Si45   O870    1.604   .     S
Si46   O433    1.612   .     S
Si46   O439    1.611   .     S
Si46   O453    1.611   .     S
Si46   O871    1.610   .     S
Si47   O446    1.614   .     S
Si47   O457    1.612   .     S
Si47   O481    1.606   .     S
Si47   O857    1.607   .     S
Si48   O427    1.608   .     S
Si48   O442    1.615   .     S
Si48   O455    1.615   .     S
Si48   O867    1.607   .     S
Si49   O435    1.616   .     S
Si49   O461    1.612   .     S
Si49   O483    1.606   .     S
Si49   O858    1.610   .     S
Si50   O444    1.613   .     S
Si50   O458    1.612   .     S
Si50   O486    1.614   .     S
Si50   O862    1.610   .     S
Si51   O436    1.616   .     S
Si51   O462    1.616   .     S
Si51   O482    1.610   .     S
Si51   O859    1.607   .     S
Si52   O440    1.611   .     S
Si52   O460    1.616   .     S
Si52   O485    1.610   .     S
Si52   O864    1.606   .     S
Si53   O443    1.613   .     S
Si53   O464    1.611   .     S
Si53   O484    1.609   .     S
Si53   O860    1.608   .     S
Si54   O432    1.610   .     S
Si54   O448    1.610   .     S
Si54   O454    1.615   .     S
Si54   O872    1.606   .     S
Si55   O445    1.614   .     S
Si55   O459    1.611   .     S
Si55   O487    1.610   .     S
Si55   O861    1.608   .     S
Si56   O447    1.610   .     S
Si56   O465    1.617   .     S
Si56   O489    1.612   .     S
Si56   O863    1.606   .     S
Si57   O467    1.613   .     S
Si57   O491    1.609   1_556 S
Si57   O500    1.613   .     S
Si57   O505    1.612   .     S
Si58   O466    1.614   .     S
Si58   O492    1.616   .     S
Si58   O875    1.609   .     S
Si58   O891    1.609   .     S
Si59   O469    1.611   .     S
Si59   O494    1.614   .     S
Si59   O880    1.606   1_545 S
Si59   O894    1.607   .     S
Si60   O475    1.611   .     S
Si60   O488    1.615   .     S
Si60   O873    1.611   .     S
Si60   O896    1.608   .     S
Si61   O480    1.616   .     S
Si61   O488    1.615   .     S
Si61   O496    1.609   1_554 S
Si61   O509    1.614   .     S
Si62   O477    1.614   .     S
Si62   O490    1.615   .     S
Si62   O493    1.613   .     S
Si62   O510    1.614   .     S
Si63   O463    1.609   .     S
Si63   O500    1.611   .     S
Si63   O879    1.609   1_565 S
Si63   O889    1.607   .     S
Si64   O468    1.610   .     S
Si64   O498    1.614   .     S
Si64   O885    1.607   .     S
Si64   O892    1.609   .     S
Si65   O473    1.611   .     S
Si65   O498    1.616   .     S
Si65   O501    1.611   .     S
Si65   O506    1.613   .     S
Si66   O474    1.615   .     S
Si66   O492    1.615   .     S
Si66   O497    1.610   1_556 S
Si66   O507    1.616   .     S
Si67   O472    1.612   .     S
Si67   O490    1.615   .     S
Si67   O878    1.606   1_545 S
Si67   O895    1.609   .     S
Si68   O470    1.613   .     S
Si68   O503    1.612   .     S
Si68   O881    1.607   1_565 S
Si68   O890    1.609   .     S
Si69   O478    1.613   .     S
Si69   O494    1.613   .     S
Si69   O495    1.609   1_554 S
Si69   O512    1.614   .     S
Si70   O471    1.610   .     S
Si70   O499    1.614   .     S
Si70   O882    1.608   .     S
Si70   O893    1.608   .     S
Si71   O476    1.613   .     S
Si71   O502    1.612   .     S
Si71   O503    1.614   .     S
Si71   O508    1.613   .     S
Si72   O479    1.611   .     S
Si72   O499    1.613   .     S
Si72   O504    1.612   .     S
Si72   O511    1.612   .     S
Si73   O482    1.611   .     S
Si73   O491    1.610   .     S
Si73   O513    1.618   .     S
Si73   O876    1.606   .     S
Si74   O489    1.612   .     S
Si74   O495    1.610   .     S
Si74   O517    1.617   .     S
Si74   O874    1.607   .     S
Si75   O481    1.606   .     S
Si75   O496    1.612   .     S
Si75   O514    1.612   .     S
Si75   O888    1.607   .     S
Si76   O486    1.613   .     S
Si76   O501    1.610   .     S
Si76   O516    1.617   .     S
Si76   O877    1.608   .     S
Si77   O484    1.608   .     S
Si77   O493    1.612   .     S
Si77   O518    1.611   .     S
Si77   O883    1.609   .     S
Si78   O485    1.610   .     S
Si78   O497    1.612   .     S
Si78   O515    1.614   .     S
Si78   O886    1.609   .     S
Si79   O483    1.606   .     S
Si79   O502    1.613   .     S
Si79   O520    1.614   .     S
Si79   O887    1.607   .     S
Si80   O487    1.610   .     S
Si80   O504    1.612   .     S
Si80   O519    1.611   .     S
Si80   O884    1.610   .     S
Si81   O505    1.611   .     S
Si81   O521    1.613   .     S
Si81   O905    1.603   .     S
Si81   O923    1.605   .     S
Si82   O506    1.611   .     S
Si82   O523    1.619   .     S
Si82   O906    1.609   .     S
Si82   O924    1.609   .     S
Si83   O507    1.614   .     S
Si83   O534    1.610   .     S
Si83   O910    1.608   .     S
Si83   O920    1.613   .     S
Si84   O510    1.613   .     S
Si84   O532    1.612   .     S
Si84   O918    1.607   .     S
Si84   O928    1.610   .     S
Si85   O508    1.612   .     S
Si85   O530    1.614   .     S
Si85   O913    1.606   .     S
Si85   O931    1.605   .     S
Si86   O509    1.614   .     S
Si86   O531    1.614   .     S
Si86   O919    1.609   .     S
Si86   O929    1.606   .     S
Si87   O511    1.611   .     S
Si87   O529    1.617   .     S
Si87   O914    1.610   .     S
Si87   O927    1.610   .     S
Si88   O512    1.614   .     S
Si88   O535    1.612   .     S
Si88   O922    1.603   .     S
Si88   O934    1.605   .     S
Si89   O513    1.614   .     S
Si89   O521    1.610   1_554 S
Si89   O522    1.614   .     S
Si89   O537    1.614   .     S
Si90   O514    1.608   .     S
Si90   O524    1.610   .     S
Si90   O531    1.613   1_556 S
Si90   O538    1.609   .     S
Si91   O526    1.619   .     S
Si91   O546    1.621   .     S
Si91   O901    1.605   .     S
Si91   O909    1.605   .     S
Si92   O536    1.614   .     S
Si92   O541    1.616   .     S
Si92   O898    1.609   .     S
Si92   O912    1.602   1_545 S
Si93   O522    1.614   .     S
Si93   O549    1.617   .     S
Si93   O899    1.609   .     S
Si93   O915    1.604   1_565 S
Si94   O516    1.612   .     S
Si94   O523    1.613   .     S
Si94   O526    1.619   .     S
Si94   O539    1.618   .     S
Si95   O524    1.612   .     S
Si95   O550    1.614   .     S
Si95   O903    1.607   .     S
Si95   O907    1.606   .     S
Si96   O525    1.610   .     S
Si96   O545    1.612   .     S
Si96   O900    1.606   .     S
Si96   O917    1.605   .     S
Si97   O527    1.610   .     S
Si97   O547    1.613   .     S
Si97   O902    1.606   .     S
Si97   O911    1.605   1_545 S
Si98   O515    1.610   .     S
Si98   O525    1.609   .     S
Si98   O534    1.610   1_554 S
Si98   O543    1.611   .     S
Si99   O528    1.619   .     S
Si99   O544    1.617   .     S
Si99   O897    1.603   .     S
Si99   O908    1.607   .     S
Si100  O533    1.609   .     S
Si100  O552    1.613   .     S
Si100  O904    1.604   .     S
Si100  O916    1.603   1_565 S
Si101  O518    1.612   .     S
Si101  O527    1.611   .     S
Si101  O532    1.612   .     S
Si101  O542    1.609   .     S
Si102  O517    1.614   .     S
Si102  O535    1.610   1_556 S
Si102  O536    1.614   .     S
Si102  O540    1.614   .     S
Si103  O520    1.610   .     S
Si103  O530    1.614   .     S
Si103  O533    1.609   .     S
Si103  O548    1.609   .     S
Si104  O519    1.609   .     S
Si104  O528    1.619   .     S
Si104  O529    1.614   .     S
Si104  O551    1.614   .     S
Si105  O559    1.613   .     S
Si105  O561    1.615   .     S
Si105  O921    1.605   .     S
Si105  O950    1.606   .     S
Si106  O554    1.610   .     S
Si106  O563    1.619   .     S
Si106  O925    1.611   .     S
Si106  O951    1.613   .     S
Si107  O553    1.616   .     S
Si107  O566    1.610   .     S
Si107  O930    1.610   .     S
Si107  O952    1.609   .     S
Si108  O558    1.610   .     S
Si108  O562    1.621   .     S
Si108  O926    1.610   .     S
Si108  O953    1.612   .     S
Si109  O557    1.614   .     S
Si109  O565    1.614   .     S
Si109  O932    1.610   .     S
Si109  O958    1.606   .     S
Si110  O556    1.614   .     S
Si110  O568    1.610   .     S
Si110  O935    1.612   .     S
Si110  O957    1.609   .     S
Si111  O560    1.613   .     S
Si111  O564    1.614   .     S
Si111  O933    1.605   .     S
Si111  O955    1.606   .     S
Si112  O555    1.611   .     S
Si112  O567    1.610   .     S
Si112  O936    1.609   .     S
Si112  O960    1.608   .     S
Si113  O537    1.613   .     S
Si113  O569    1.612   .     S
Si113  O937    1.608   .     S
Si113  O963    1.604   1_554 S
Si114  O538    1.608   .     S
Si114  O572    1.609   .     S
Si114  O940    1.602   .     S
Si114  O946    1.604   1_556 S
Si115  O540    1.612   .     S
Si115  O570    1.611   .     S
Si115  O941    1.609   .     S
Si115  O949    1.604   1_556 S
Si116  O539    1.617   .     S
Si116  O571    1.618   .     S
Si116  O939    1.604   .     S
Si116  O945    1.606   .     S
Si117  O542    1.609   .     S
Si117  O573    1.608   .     S
Si117  O938    1.608   .     S
Si117  O948    1.605   .     S
Si118  O543    1.610   .     S
Si118  O575    1.607   .     S
Si118  O942    1.603   .     S
Si118  O947    1.602   1_554 S
Si119  O544    1.619   .     S
Si119  O555    1.607   .     S
Si119  O563    1.617   .     S
Si119  O576    1.623   .     S
Si120  O541    1.616   .     S
Si120  O556    1.615   .     S
Si120  O561    1.611   1_545 S
Si120  O579    1.615   .     S
Si121  O551    1.614   .     S
Si121  O574    1.618   .     S
Si121  O943    1.600   .     S
Si121  O954    1.607   .     S
Si122  O546    1.622   .     S
Si122  O553    1.610   .     S
Si122  O562    1.613   .     S
Si122  O578    1.623   .     S
Si123  O548    1.610   .     S
Si123  O577    1.608   .     S
Si123  O944    1.606   .     S
Si123  O956    1.602   .     S
Si124  O545    1.615   .     S
Si124  O554    1.612   .     S
Si124  O567    1.610   .     S
Si124  O580    1.612   .     S
Si125  O549    1.617   .     S
Si125  O557    1.615   .     S
Si125  O564    1.613   1_565 S
Si125  O581    1.616   .     S
Si126  O552    1.614   .     S
Si126  O559    1.608   .     S
Si126  O568    1.610   1_565 S
Si126  O584    1.611   .     S
Si127  O550    1.616   .     S
Si127  O558    1.613   .     S
Si127  O566    1.613   .     S
Si127  O582    1.613   .     S
Si128  O547    1.612   .     S
Si128  O560    1.610   .     S
Si128  O565    1.612   1_545 S
Si128  O583    1.615   .     S
Si129  O585    1.619   .     S
Si129  O602    1.611   .     S
Si129  O959    1.608   .     S
Si129  O971    1.610   .     S
Si130  O587    1.617   .     S
Si130  O601    1.618   .     S
Si130  O961    1.611   .     S
Si130  O981    1.612   .     S
Si131  O591    1.614   .     S
Si131  O604    1.616   .     S
Si131  O966    1.607   .     S
Si131  O980    1.602   .     S
Si132  O589    1.615   .     S
Si132  O605    1.615   .     S
Si132  O962    1.609   .     S
Si132  O982    1.610   .     S
Si133  O586    1.615   .     S
Si133  O607    1.616   .     S
Si133  O965    1.606   .     S
Si133  O973    1.605   .     S
Si134  O599    1.612   .     S
Si134  O603    1.610   .     S
Si134  O964    1.607   .     S
Si134  O983    1.608   .     S
Si135  O596    1.614   .     S
Si135  O608    1.615   .     S
Si135  O968    1.607   .     S
Si135  O972    1.606   .     S
Si136  O593    1.610   .     S
Si136  O606    1.618   .     S
Si136  O967    1.611   .     S
Si136  O984    1.612   .     S
Si137  O569    1.613   .     S
Si137  O596    1.615   .     S
Si137  O600    1.614   .     S
Si137  O991    1.609   .     S
Si138  O570    1.612   .     S
Si138  O588    1.616   .     S
Si138  O589    1.617   .     S
Si138  O995    1.606   .     S
Si139  O573    1.607   .     S
Si139  O587    1.618   .     S
Si139  O590    1.614   .     S
Si139  O997    1.602   .     S
Si140  O572    1.609   .     S
Si140  O591    1.610   .     S
Si140  O592    1.608   .     S
Si140  O994    1.606   .     S
Si141  O576    1.623   .     S
Si141  O597    1.615   .     S
Si141  O609    1.616   .     S
Si141  O969    1.600   .     S
Si142  O571    1.618   .     S
Si142  O585    1.613   .     S
Si142  O595    1.618   .     S
Si142  O996    1.607   .     S
Si143  O578    1.622   .     S
Si143  O595    1.618   .     S
Si143  O611    1.614   .     S
Si143  O975    1.604   .     S
Si144  O580    1.612   .     S
Si144  O594    1.611   .     S
Si144  O612    1.611   .     S
Si144  O970    1.606   .     S
Si145  O579    1.616   .     S
Si145  O588    1.616   .     S
Si145  O610    1.613   .     S
Si145  O976    1.608   .     S
Si146  O575    1.607   .     S
Si146  O586    1.612   .     S
Si146  O594    1.609   .     S
Si146  O1000   1.606   .     S
Si147  O582    1.613   .     S
Si147  O592    1.611   .     S
Si147  O614    1.614   .     S
Si147  O978    1.607   .     S
Si148  O583    1.614   .     S
Si148  O590    1.612   .     S
Si148  O613    1.613   .     S
Si148  O974    1.606   .     S
Si149  O577    1.607   .     S
Si149  O593    1.614   .     S
Si149  O598    1.609   .     S
Si149  O999    1.606   .     S
Si150  O574    1.619   .     S
Si150  O597    1.615   .     S
Si150  O599    1.608   .     S
Si150  O998    1.608   .     S
Si151  O584    1.611   .     S
Si151  O598    1.607   .     S
Si151  O615    1.613   .     S
Si151  O979    1.603   .     S
Si152  O581    1.617   .     S
Si152  O600    1.614   .     S
Si152  O616    1.616   .     S
Si152  O977    1.606   .     S
Si153  O618    1.618   .     S
Si153  O629    1.607   .     S
Si153  O633    1.619   .     S
Si153  O985    1.608   .     S
Si154  O620    1.613   .     S
Si154  O625    1.614   .     S
Si154  O635    1.610   .     S
Si154  O986    1.607   .     S
Si155  O623    1.613   .     S
Si155  O627    1.615   .     S
Si155  O634    1.610   .     S
Si155  O987    1.604   .     S
Si156  O617    1.613   .     S
Si156  O621    1.611   .     S
Si156  O638    1.610   .     S
Si156  O988    1.605   .     S
Si157  O619    1.617   .     S
Si157  O626    1.606   .     S
Si157  O640    1.618   .     S
Si157  O990    1.607   .     S
Si158  O624    1.613   .     S
Si158  O630    1.613   .     S
Si158  O637    1.606   .     S
Si158  O989    1.602   .     S
Si159  O622    1.612   .     S
Si159  O632    1.608   .     S
Si159  O636    1.609   .     S
Si159  O992    1.606   .     S
Si160  O601    1.616   .     S
Si160  O618    1.618   .     S
Si160  O642    1.622   .     S
Si160  O1005   1.602   .     S
Si161  O628    1.614   .     S
Si161  O631    1.617   .     S
Si161  O639    1.613   .     S
Si161  O993    1.603   .     S
Si162  O603    1.611   .     S
Si162  O622    1.614   .     S
Si162  O644    1.612   .     S
Si162  O1002   1.608   .     S
Si163  O602    1.614   .     S
Si163  O617    1.615   .     S
Si163  O645    1.613   .     S
Si163  O1011   1.609   .     S
Si164  O604    1.616   .     S
Si164  O620    1.614   .     S
Si164  O641    1.614   .     S
Si164  O1014   1.609   .     S
Si165  O606    1.616   .     S
Si165  O619    1.617   .     S
Si165  O646    1.621   .     S
Si165  O1003   1.602   .     S
Si166  O605    1.615   .     S
Si166  O627    1.614   .     S
Si166  O643    1.615   .     S
Si166  O1006   1.606   .     S
Si167  O608    1.614   .     S
Si167  O630    1.611   .     S
Si167  O648    1.612   .     S
Si167  O1012   1.604   .     S
Si168  O607    1.614   .     S
Si168  O631    1.618   .     S
Si168  O647    1.617   .     S
Si168  O1009   1.610   .     S
Si169  O609    1.619   .     S
Si169  O624    1.610   .     S
Si169  O649    1.614   .     S
Si169  O1001   1.612   .     S
Si170  O615    1.615   .     S
Si170  O625    1.614   .     S
Si170  O654    1.604   .     S
Si170  O1004   1.604   .     S
Si171  O611    1.620   .     S
Si171  O623    1.610   .     S
Si171  O651    1.614   .     S
Si171  O1007   1.612   .     S
Si172  O610    1.613   .     S
Si172  O621    1.611   .     S
Si172  O650    1.610   .     S
Si172  O1013   1.607   .     S
Si173  O612    1.610   .     S
Si173  O629    1.610   .     S
Si173  O653    1.612   .     S
Si173  O1008   1.611   .     S
Si174  O614    1.614   .     S
Si174  O626    1.612   .     S
Si174  O652    1.607   .     S
Si174  O1010   1.606   .     S
Si175  O613    1.614   .     S
Si175  O628    1.614   .     S
Si175  O655    1.609   .     S
Si175  O1016   1.608   .     S
Si176  O616    1.617   .     S
Si176  O632    1.612   .     S
Si176  O656    1.609   .     S
Si176  O1015   1.603   .     S
Si177  O633    1.619   .     S
Si177  O657    1.614   .     S
Si177  O673    1.607   .     S
Si177  O689    1.617   .     S
Si178  O635    1.610   .     S
Si178  O658    1.614   1_565 S
Si178  O679    1.608   .     S
Si178  O690    1.610   .     S
Si179  O636    1.608   .     S
Si179  O663    1.612   1_565 S
Si179  O678    1.608   .     S
Si179  O692    1.609   .     S
Si180  O634    1.609   .     S
Si180  O662    1.610   .     S
Si180  O676    1.614   .     S
Si180  O686    1.614   .     S
Si181  O637    1.605   .     S
Si181  O666    1.609   .     S
Si181  O675    1.612   .     S
Si181  O693    1.612   .     S
Si182  O638    1.609   .     S
Si182  O670    1.610   1_545 S
Si182  O674    1.608   .     S
Si182  O697    1.610   .     S
Si183  O640    1.616   .     S
Si183  O659    1.614   .     S
Si183  O680    1.609   .     S
Si183  O696    1.616   .     S
Si184  O639    1.613   .     S
Si184  O672    1.609   1_545 S
Si184  O677    1.613   .     S
Si184  O699    1.614   .     S
Si185  O644    1.612   .     S
Si185  O661    1.610   .     S
Si185  O682    1.612   .     S
Si185  O694    1.612   .     S
Si186  O643    1.614   .     S
Si186  O660    1.612   1_556 S
Si186  O684    1.611   .     S
Si186  O695    1.612   .     S
Si187  O642    1.623   .     S
Si187  O664    1.614   .     S
Si187  O685    1.609   .     S
Si187  O698    1.618   .     S
Si188  O641    1.615   .     S
Si188  O665    1.612   1_556 S
Si188  O681    1.614   .     S
Si188  O702    1.611   .     S
Si189  O645    1.613   .     S
Si189  O669    1.608   .     S
Si189  O683    1.615   .     S
Si189  O701    1.616   .     S
Si190  O646    1.622   .     S
Si190  O668    1.613   .     S
Si190  O687    1.608   .     S
Si190  O700    1.617   .     S
Si191  O647    1.618   .     S
Si191  O667    1.607   1_554 S
Si191  O691    1.615   .     S
Si191  O703    1.617   .     S
Si192  O648    1.612   .     S
Si192  O671    1.609   1_554 S
Si192  O688    1.607   .     S
Si192  O704    1.610   .     S
Si193  O649    1.615   .     S
Si193  O657    1.617   .     S
Si193  O675    1.609   .     S
Si193  O1025   1.612   .     S
Si194  O650    1.609   .     S
Si194  O658    1.612   .     S
Si194  O674    1.609   .     S
Si194  O1026   1.606   .     S
Si195  O651    1.615   .     S
Si195  O659    1.615   .     S
Si195  O676    1.612   .     S
Si195  O1027   1.612   .     S
Si196  O653    1.612   .     S
Si196  O666    1.606   .     S
Si196  O673    1.610   .     S
Si196  O1032   1.611   .     S
Si197  O655    1.608   .     S
Si197  O663    1.611   .     S
Si197  O677    1.612   .     S
Si197  O1028   1.611   .     S
Si198  O652    1.606   .     S
Si198  O662    1.611   .     S
Si198  O680    1.614   .     S
Si198  O1029   1.608   .     S
Si199  O654    1.606   .     S
Si199  O670    1.616   .     S
Si199  O679    1.610   .     S
Si199  O1030   1.604   .     S
Si200  O667    1.610   .     S
Si200  O684    1.612   .     S
Si200  O705    1.612   .     S
Si200  O1017   1.607   .     S
Si201  O656    1.609   .     S
Si201  O672    1.612   .     S
Si201  O678    1.611   .     S
Si201  O1031   1.606   .     S
Si202  O664    1.617   .     S
Si202  O683    1.613   .     S
Si202  O710    1.615   .     S
Si202  O1021   1.613   .     S
Si203  O661    1.611   .     S
Si203  O687    1.613   .     S
Si203  O707    1.611   .     S
Si203  O1024   1.606   .     S
Si204  O669    1.608   .     S
Si204  O685    1.612   .     S
Si204  O708    1.614   .     S
Si204  O1020   1.609   .     S
Si205  O668    1.616   .     S
Si205  O682    1.609   .     S
Si205  O711    1.613   .     S
Si205  O1023   1.612   .     S
Si206  O660    1.613   .     S
Si206  O691    1.614   .     S
Si206  O709    1.615   .     S
Si206  O1022   1.608   .     S
Si207  O665    1.612   .     S
Si207  O688    1.611   .     S
Si207  O706    1.608   .     S
Si207  O1019   1.608   .     S
Si208  O671    1.612   .     S
Si208  O681    1.612   .     S
Si208  O712    1.611   .     S
Si208  O1018   1.602   .     S
Si209  O689    1.615   .     S
Si209  O715    1.623   .     S
Si209  O1040   1.610   .     S
Si209  O1050   1.601   .     S
Si210  O690    1.609   .     S
Si210  O726    1.612   .     S
Si210  O1033   1.611   1_565 S
Si210  O1049   1.602   .     S
Si211  O700    1.616   .     S
Si211  O713    1.622   .     S
Si211  O723    1.613   .     S
Si211  O732    1.607   .     S
Si212  O694    1.609   .     S
Si212  O716    1.611   .     S
Si212  O718    1.610   .     S
Si212  O729    1.609   .     S
Si213  O686    1.610   .     S
Si213  O725    1.613   .     S
Si213  O1036   1.606   .     S
Si213  O1051   1.607   .     S
Si214  O692    1.609   .     S
Si214  O716    1.611   .     S
Si214  O1037   1.607   1_565 S
Si214  O1052   1.603   .     S
Si215  O693    1.608   .     S
Si215  O714    1.611   .     S
Si215  O1034   1.609   .     S
Si215  O1053   1.605   .     S
Si216  O695    1.612   .     S
Si216  O722    1.610   1_556 S
Si216  O725    1.614   .     S
Si216  O731    1.610   .     S
Si217  O698    1.617   .     S
Si217  O715    1.623   .     S
Si217  O720    1.614   .     S
Si217  O730    1.609   .     S
Si218  O703    1.617   .     S
Si218  O721    1.615   .     S
Si218  O724    1.607   1_554 S
Si218  O733    1.615   .     S
Si219  O696    1.614   .     S
Si219  O713    1.620   .     S
Si219  O1044   1.611   .     S
Si219  O1054   1.602   .     S
Si220  O699    1.613   .     S
Si220  O721    1.615   .     S
Si220  O1038   1.606   1_545 S
Si220  O1055   1.608   .     S
Si221  O702    1.611   .     S
Si221  O719    1.611   1_556 S
Si221  O726    1.612   .     S
Si221  O734    1.616   .     S
Si222  O697    1.608   .     S
Si222  O717    1.614   .     S
Si222  O1043   1.606   1_545 S
Si222  O1056   1.602   .     S
Si223  O701    1.614   .     S
Si223  O717    1.614   .     S
Si223  O727    1.609   .     S
Si223  O735    1.612   .     S
Si224  O704    1.611   .     S
Si224  O714    1.611   .     S
Si224  O728    1.610   1_554 S
Si224  O736    1.608   .     S
Si225  O709    1.615   .     S
Si225  O722    1.611   .     S
Si225  O740    1.615   .     S
Si225  O1035   1.608   .     S
Si226  O707    1.608   .     S
Si226  O718    1.612   .     S
Si226  O737    1.615   .     S
Si226  O1039   1.602   .     S
Si227  O706    1.607   .     S
Si227  O719    1.611   .     S
Si227  O738    1.614   .     S
Si227  O1042   1.605   .     S
Si228  O705    1.611   .     S
Si228  O724    1.608   .     S
Si228  O739    1.613   .     S
Si228  O1041   1.606   .     S
Si229  O710    1.615   .     S
Si229  O720    1.616   .     S
Si229  O741    1.610   .     S
Si229  O1047   1.614   .     S
Si230  O711    1.613   .     S
Si230  O723    1.616   .     S
Si230  O744    1.611   .     S
Si230  O1045   1.612   .     S
Si231  O712    1.610   .     S
Si231  O728    1.612   .     S
Si231  O743    1.613   .     S
Si231  O1046   1.603   .     S
Si232  O708    1.612   .     S
Si232  O727    1.610   .     S
Si232  O742    1.615   .     S
Si232  O1048   1.608   .     S
Si233  O729    1.612   .     S
Si233  O752    1.615   .     S
Si233  O1066   1.606   .     S
Si233  O1078   1.602   .     S
Si234  O731    1.613   .     S
Si234  O756    1.614   .     S
Si234  O1065   1.605   .     S
Si234  O1096   1.606   .     S
Si235  O734    1.615   .     S
Si235  O753    1.613   .     S
Si235  O1068   1.600   .     S
Si235  O1092   1.606   .     S
Si236  O733    1.615   .     S
Si236  O758    1.612   .     S
Si236  O1079   1.607   .     S
Si236  O1091   1.612   .     S
Si237  O732    1.611   .     S
Si237  O759    1.616   .     S
Si237  O1081   1.604   .     S
Si237  O1089   1.604   .     S
Si238  O730    1.611   .     S
Si238  O750    1.611   .     S
Si238  O1072   1.608   .     S
Si238  O1093   1.610   .     S
Si239  O735    1.616   .     S
Si239  O754    1.614   .     S
Si239  O1080   1.604   .     S
Si239  O1090   1.605   .     S
Si240  O736    1.612   .     S
Si240  O760    1.614   .     S
Si240  O1083   1.606   .     S
Si240  O1095   1.603   .     S
Si241  O746    1.614   .     S
Si241  O769    1.613   .     S
Si241  O1057   1.608   .     S
Si241  O1067   1.604   .     S
Si242  O747    1.612   .     S
Si242  O765    1.612   .     S
Si242  O1058   1.606   .     S
Si242  O1069   1.604   1_545 S
Si243  O745    1.612   .     S
Si243  O773    1.611   .     S
Si243  O1061   1.608   .     S
Si243  O1073   1.606   .     S
Si244  O748    1.615   .     S
Si244  O775    1.617   .     S
Si244  O1062   1.609   .     S
Si244  O1071   1.603   1_545 S
Si245  O749    1.617   .     S
Si245  O771    1.617   .     S
Si245  O1060   1.609   .     S
Si245  O1074   1.605   .     S
Si246  O742    1.615   .     S
Si246  O748    1.615   .     S
Si246  O754    1.611   .     S
Si246  O766    1.615   .     S
Si247  O737    1.616   .     S
Si247  O751    1.611   .     S
Si247  O752    1.615   .     S
Si247  O761    1.612   .     S
Si248  O739    1.614   .     S
Si248  O747    1.612   .     S
Si248  O758    1.612   1_556 S
Si248  O762    1.612   .     S
Si249  O751    1.614   .     S
Si249  O772    1.612   .     S
Si249  O1059   1.607   .     S
Si249  O1076   1.608   1_565 S
Si250  O741    1.612   .     S
Si250  O745    1.612   .     S
Si250  O750    1.611   .     S
Si250  O767    1.610   .     S
Si251  O740    1.615   .     S
Si251  O749    1.616   .     S
Si251  O756    1.611   1_554 S
Si251  O768    1.615   .     S
Si252  O738    1.611   .     S
Si252  O753    1.611   1_554 S
Si252  O757    1.608   .     S
Si252  O763    1.609   .     S
Si253  O744    1.611   .     S
Si253  O746    1.612   .     S
Si253  O759    1.614   .     S
Si253  O764    1.607   .     S
Si254  O755    1.611   .     S
Si254  O776    1.614   .     S
Si254  O1063   1.611   .     S
Si254  O1070   1.608   .     S
Si255  O743    1.616   .     S
Si255  O755    1.612   .     S
Si255  O760    1.614   1_556 S
Si255  O770    1.610   .     S
Si256  O757    1.609   .     S
Si256  O774    1.613   .     S
Si256  O1064   1.607   .     S
Si256  O1075   1.603   1_565 S
Si257  O778    1.615   .     S
Si257  O786    1.609   .     S
Si257  O1077   1.608   .     S
Si257  O1113   1.608   .     S
Si258  O781    1.614   .     S
Si258  O789    1.611   .     S
Si258  O1086   1.611   .     S
Si258  O1107   1.609   .     S
Si259  O782    1.610   .     S
Si259  O787    1.616   .     S
Si259  O1085   1.605   .     S
Si259  O1110   1.605   .     S
Si260  O779    1.612   .     S
Si260  O790    1.615   .     S
Si260  O1084   1.604   .     S
Si260  O1109   1.603   .     S
Si261  O783    1.614   .     S
Si261  O785    1.615   .     S
Si261  O1088   1.605   .     S
Si261  O1120   1.606   .     S
Si262  O777    1.613   .     S
Si262  O792    1.618   .     S
Si262  O1082   1.605   .     S
Si262  O1116   1.608   .     S
Si263  O780    1.612   .     S
Si263  O791    1.614   .     S
Si263  O1087   1.602   .     S
Si263  O1118   1.603   .     S
Si264  O784    1.613   .     S
Si264  O788    1.615   .     S
Si264  O1094   1.604   .     S
Si264  O1117   1.602   .     S
Si265  O762    1.613   .     S
Si265  O795    1.609   .     S
Si265  O1099   1.607   .     S
Si265  O1105   1.603   1_556 S
Si266  O764    1.607   .     S
Si266  O793    1.610   .     S
Si266  O1098   1.602   .     S
Si266  O1108   1.607   .     S
Si267  O761    1.609   .     S
Si267  O797    1.613   .     S
Si267  O1103   1.608   .     S
Si267  O1106   1.608   .     S
Si268  O770    1.609   .     S
Si268  O794    1.612   .     S
Si268  O1097   1.608   .     S
Si268  O1115   1.607   1_556 S
Si269  O766    1.614   .     S
Si269  O796    1.614   .     S
Si269  O1100   1.609   .     S
Si269  O1111   1.604   .     S
Si270  O763    1.608   .     S
Si270  O800    1.610   .     S
Si270  O1104   1.603   .     S
Si270  O1114   1.604   1_554 S
Si271  O768    1.615   .     S
Si271  O799    1.615   .     S
Si271  O1101   1.608   .     S
Si271  O1119   1.605   1_554 S
Si272  O767    1.608   .     S
Si272  O798    1.608   .     S
Si272  O1102   1.604   .     S
Si272  O1112   1.607   .     S
Si273  O771    1.619   .     S
Si273  O778    1.614   .     S
Si273  O785    1.611   .     S
Si273  O804    1.618   .     S
Si274  O772    1.614   .     S
Si274  O780    1.608   .     S
Si274  O787    1.618   1_565 S
Si274  O803    1.616   .     S
Si275  O769    1.618   .     S
Si275  O783    1.613   .     S
Si275  O786    1.612   .     S
Si275  O805    1.610   .     S
Si276  O773    1.612   .     S
Si276  O777    1.610   .     S
Si276  O788    1.613   .     S
Si276  O807    1.613   .     S
Si277  O774    1.613   .     S
Si277  O779    1.610   .     S
Si277  O789    1.612   1_565 S
Si277  O802    1.614   .     S
Si278  O765    1.616   .     S
Si278  O782    1.610   .     S
Si278  O791    1.608   1_545 S
Si278  O801    1.616   .     S
Si279  O775    1.618   .     S
Si279  O781    1.614   .     S
Si279  O790    1.611   1_545 S
Si279  O808    1.617   .     S
Si280  O776    1.613   .     S
Si280  O784    1.614   .     S
Si280  O792    1.617   .     S
Si280  O806    1.617   .     S
Si281  O813    1.617   .     S
Si281  O829    1.609   .     S
Si281  O1125   1.609   .     S
Si281  O1129   1.613   .     S
Si282  O816    1.615   .     S
Si282  O825    1.616   .     S
Si282  O1121   1.603   .     S
Si282  O1140   1.606   .     S
Si283  O817    1.614   .     S
Si283  O828    1.617   .     S
Si283  O1122   1.606   .     S
Si283  O1142   1.603   .     S
Si284  O810    1.614   .     S
Si284  O831    1.615   .     S
Si284  O1126   1.602   .     S
Si284  O1132   1.605   .     S
Si285  O814    1.618   .     S
Si285  O827    1.617   .     S
Si285  O1123   1.605   .     S
Si285  O1131   1.605   .     S
Si286  O824    1.616   .     S
Si286  O826    1.616   .     S
Si286  O1124   1.608   .     S
Si286  O1144   1.611   .     S
Si287  O809    1.614   .     S
Si287  O832    1.615   .     S
Si287  O1128   1.604   .     S
Si287  O1130   1.605   .     S
Si288  O821    1.617   .     S
Si288  O830    1.613   .     S
Si288  O1127   1.604   .     S
Si288  O1143   1.606   .     S
Si289  O794    1.611   .     S
Si289  O811    1.611   .     S
Si289  O816    1.616   .     S
Si289  O833    1.609   1_655 S
Si290  O793    1.610   .     S
Si290  O812    1.609   .     S
Si290  O817    1.610   .     S
Si290  O834    1.606   1_655 S
Si291  O797    1.613   .     S
Si291  O810    1.615   .     S
Si291  O819    1.609   .     S
Si291  O835    1.609   1_655 S
Si292  O800    1.610   .     S
Si292  O809    1.611   .     S
Si292  O818    1.608   .     S
Si292  O836    1.607   1_655 S
Si293  O385    1.611   1_655 S
Si293  O805    1.610   .     S
Si293  O812    1.612   .     S
Si293  O1135   1.606   .     S
Si294  O799    1.615   .     S
Si294  O813    1.617   .     S
Si294  O822    1.615   .     S
Si294  O839    1.606   1_655 S
Si295  O796    1.613   .     S
Si295  O815    1.616   .     S
Si295  O824    1.616   .     S
Si295  O837    1.603   1_655 S
Si296  O387    1.616   1_655 S
Si296  O806    1.618   .     S
Si296  O811    1.608   .     S
Si296  O1134   1.606   .     S
Si297  O795    1.607   .     S
Si297  O820    1.612   .     S
Si297  O821    1.616   .     S
Si297  O838    1.605   1_655 S
Si298  O386    1.614   1_655 S
Si298  O802    1.612   .     S
Si298  O818    1.608   .     S
Si298  O1138   1.603   .     S
Si299  O798    1.607   .     S
Si299  O814    1.612   .     S
Si299  O823    1.612   .     S
Si299  O840    1.603   1_655 S
Si300  O390    1.616   1_655 S
Si300  O803    1.614   .     S
Si300  O819    1.612   .     S
Si300  O1137   1.609   .     S
Si301  O388    1.613   1_655 S
Si301  O801    1.613   .     S
Si301  O820    1.612   .     S
Si301  O1133   1.607   .     S
Si302  O389    1.612   1_655 S
Si302  O808    1.618   .     S
Si302  O815    1.616   .     S
Si302  O1136   1.608   .     S
Si303  O391    1.611   1_655 S
Si303  O804    1.618   .     S
Si303  O822    1.616   .     S
Si303  O1139   1.608   .     S
Si304  O392    1.612   1_655 S
Si304  O807    1.612   .     S
Si304  O823    1.612   .     S
Si304  O1141   1.603   .     S
Al305  O833    1.677   .     S
Al305  O841    1.671   .     S
Al305  O848    1.668   .     S
Al305  O857    1.671   .     S
Al306  O837    1.668   .     S
Al306  O843    1.671   .     S
Al306  O845    1.671   .     S
Al306  O860    1.675   .     S
Al307  O835    1.678   .     S
Al307  O850    1.673   .     S
Al307  O853    1.668   .     S
Al307  O858    1.674   .     S
Al308  O836    1.678   .     S
Al308  O854    1.671   .     S
Al308  O856    1.677   .     S
Al308  O859    1.669   .     S
Al309  O834    1.670   .     S
Al309  O842    1.673   .     S
Al309  O851    1.671   .     S
Al309  O861    1.675   .     S
Al310  O840    1.666   .     S
Al310  O849    1.678   .     S
Al310  O852    1.673   .     S
Al310  O862    1.678   .     S
Al311  O839    1.675   .     S
Al311  O844    1.672   .     S
Al311  O855    1.673   .     S
Al311  O864    1.669   .     S
Al312  O838    1.670   .     S
Al312  O846    1.674   .     S
Al312  O847    1.680   .     S
Al312  O863    1.670   .     S
Al313  O866    1.672   .     S
Al313  O874    1.671   .     S
Al313  O879    1.674   .     S
Al313  O898    1.677   .     S
Al314  O871    1.674   .     S
Al314  O877    1.675   .     S
Al314  O882    1.668   .     S
Al314  O901    1.678   .     S
Al315  O872    1.670   .     S
Al315  O873    1.678   .     S
Al315  O886    1.674   .     S
Al315  O900    1.674   .     S
Al316  O865    1.672   .     S
Al316  O884    1.677   .     S
Al316  O885    1.673   .     S
Al316  O897    1.670   .     S
Al317  O867    1.674   .     S
Al317  O876    1.668   .     S
Al317  O880    1.674   .     S
Al317  O899    1.681   .     S
Al318  O870    1.667   .     S
Al318  O875    1.679   .     S
Al318  O888    1.671   .     S
Al318  O903    1.675   .     S
Al319  O868    1.668   .     S
Al319  O878    1.679   .     S
Al319  O887    1.671   .     S
Al319  O904    1.673   .     S
Al320  O869    1.670   .     S
Al320  O881    1.671   .     S
Al320  O883    1.675   .     S
Al320  O902    1.669   .     S
Al321  O889    1.669   .     S
Al321  O905    1.667   .     S
Al321  O912    1.672   .     S
Al321  O921    1.667   .     S
Al322  O892    1.670   .     S
Al322  O906    1.677   .     S
Al322  O908    1.677   .     S
Al322  O925    1.673   .     S
Al323  O890    1.673   .     S
Al323  O911    1.671   .     S
Al323  O913    1.670   .     S
Al323  O932    1.673   .     S
Al324  O893    1.667   .     S
Al324  O909    1.682   .     S
Al324  O914    1.675   .     S
Al324  O926    1.672   .     S
Al325  O891    1.671   .     S
Al325  O907    1.667   .     S
Al325  O910    1.675   .     S
Al325  O930    1.676   .     S
Al326  O895    1.672   .     S
Al326  O916    1.665   .     S
Al326  O918    1.675   .     S
Al326  O935    1.677   .     S
Al327  O894    1.668   .     S
Al327  O915    1.672   .     S
Al327  O922    1.667   .     S
Al327  O933    1.668   .     S
Al328  O896    1.670   .     S
Al328  O917    1.670   .     S
Al328  O929    1.671   .     S
Al328  O936    1.669   .     S
Al329  O919    1.674   .     S
Al329  O937    1.672   .     S
Al329  O946    1.669   .     S
Al329  O968    1.671   .     S
Al330  O924    1.674   .     S
Al330  O938    1.664   .     S
Al330  O945    1.680   .     S
Al330  O961    1.678   .     S
Al331  O928    1.675   .     S
Al331  O939    1.677   .     S
Al331  O948    1.661   .     S
Al331  O959    1.673   .     S
Al332  O920    1.678   .     S
Al332  O941    1.671   .     S
Al332  O947    1.664   .     S
Al332  O962    1.676   .     S
Al333  O934    1.667   .     S
Al333  O942    1.671   .     S
Al333  O949    1.674   .     S
Al333  O965    1.669   .     S
Al334  O923    1.666   .     S
Al334  O940    1.669   .     S
Al334  O963    1.674   .     S
Al334  O966    1.670   .     S
Al335  O927    1.675   .     S
Al335  O944    1.662   .     S
Al335  O954    1.678   .     S
Al335  O967    1.678   .     S
Al336  O931    1.672   .     S
Al336  O943    1.668   .     S
Al336  O956    1.662   .     S
Al336  O964    1.672   .     S
Al337  O951    1.680   .     S
Al337  O970    1.663   .     S
Al337  O981    1.678   .     S
Al337  O985    1.678   .     S
Al338  O950    1.670   .     S
Al338  O979    1.669   .     S
Al338  O980    1.664   .     S
Al338  O986    1.674   .     S
Al339  O955    1.669   .     S
Al339  O973    1.667   .     S
Al339  O974    1.675   .     S
Al339  O993    1.670   .     S
Al340  O960    1.673   .     S
Al340  O969    1.667   .     S
Al340  O972    1.673   .     S
Al340  O989    1.661   .     S
Al341  O953    1.680   .     S
Al341  O978    1.663   .     S
Al341  O984    1.675   .     S
Al341  O990    1.678   .     S
Al342  O952    1.673   .     S
Al342  O975    1.676   .     S
Al342  O982    1.676   .     S
Al342  O987    1.662   .     S
Al343  O958    1.673   .     S
Al343  O977    1.669   .     S
Al343  O983    1.669   .     S
Al343  O992    1.670   .     S
Al344  O957    1.676   .     S
Al344  O971    1.677   .     S
Al344  O976    1.670   .     S
Al344  O988    1.666   .     S
Al345  O994    1.674   .     S
Al345  O1010   1.666   .     S
Al345  O1014   1.675   .     S
Al345  O1018   1.666   .     S
Al346  O996    1.682   .     S
Al346  O1007   1.676   .     S
Al346  O1011   1.667   .     S
Al346  O1021   1.679   .     S
Al347  O1000   1.669   .     S
Al347  O1008   1.671   .     S
Al347  O1009   1.675   .     S
Al347  O1022   1.675   .     S
Al348  O995    1.669   .     S
Al348  O1006   1.673   .     S
Al348  O1013   1.671   .     S
Al348  O1017   1.673   .     S
Al349  O997    1.662   .     S
Al349  O1005   1.671   .     S
Al349  O1016   1.676   .     S
Al349  O1020   1.675   .     S
Al350  O999    1.671   .     S
Al350  O1003   1.675   .     S
Al350  O1004   1.670   .     S
Al350  O1024   1.667   .     S
Al351  O998    1.679   .     S
Al351  O1001   1.676   .     S
Al351  O1002   1.667   .     S
Al351  O1023   1.680   .     S
Al352  O991    1.677   .     S
Al352  O1012   1.670   .     S
Al352  O1015   1.665   .     S
Al352  O1019   1.674   .     S
Al353  O1025   1.674   .     S
Al353  O1040   1.683   .     S
Al353  O1045   1.680   .     S
Al353  O1057   1.669   .     S
Al354  O1026   1.670   .     S
Al354  O1033   1.673   .     S
Al354  O1041   1.673   .     S
Al354  O1058   1.669   .     S
Al355  O1032   1.673   .     S
Al355  O1034   1.670   .     S
Al355  O1035   1.676   .     S
Al355  O1060   1.675   .     S
Al356  O1029   1.670   .     S
Al356  O1036   1.675   .     S
Al356  O1046   1.664   .     S
Al356  O1063   1.677   .     S
Al357  O1030   1.665   .     S
Al357  O1039   1.670   .     S
Al357  O1043   1.683   .     S
Al357  O1059   1.671   .     S
Al358  O1027   1.677   .     S
Al358  O1044   1.682   .     S
Al358  O1047   1.681   .     S
Al358  O1061   1.667   .     S
Al359  O1028   1.675   .     S
Al359  O1037   1.670   .     S
Al359  O1048   1.673   .     S
Al359  O1062   1.675   .     S
Al360  O1031   1.668   .     S
Al360  O1038   1.677   .     S
Al360  O1042   1.669   .     S
Al360  O1064   1.674   .     S
Al361  O1051   1.676   .     S
Al361  O1065   1.670   .     S
Al361  O1070   1.672   .     S
Al361  O1082   1.667   .     S
Al362  O1050   1.668   .     S
Al362  O1067   1.667   .     S
Al362  O1072   1.675   .     S
Al362  O1077   1.672   .     S
Al363  O1052   1.669   .     S
Al363  O1066   1.669   .     S
Al363  O1071   1.675   .     S
Al363  O1084   1.666   .     S
Al364  O1049   1.668   .     S
Al364  O1068   1.668   .     S
Al364  O1069   1.681   .     S
Al364  O1087   1.658   .     S
Al365  O1053   1.671   .     S
Al365  O1074   1.676   .     S
Al365  O1083   1.670   .     S
Al365  O1088   1.667   .     S
Al366  O1054   1.672   .     S
Al366  O1073   1.674   .     S
Al366  O1081   1.665   .     S
Al366  O1094   1.668   .     S
Al367  O1055   1.673   .     S
Al367  O1075   1.664   .     S
Al367  O1079   1.673   .     S
Al367  O1086   1.676   .     S
Al368  O1056   1.669   .     S
Al368  O1076   1.673   .     S
Al368  O1085   1.666   .     S
Al368  O1090   1.670   .     S
Al369  O1080   1.667   .     S
Al369  O1102   1.674   .     S
Al369  O1111   1.674   .     S
Al369  O1123   1.668   .     S
Al370  O1091   1.679   .     S
Al370  O1101   1.674   .     S
Al370  O1105   1.660   .     S
Al370  O1125   1.675   .     S
Al371  O1078   1.663   .     S
Al371  O1098   1.667   .     S
Al371  O1106   1.677   .     S
Al371  O1122   1.670   .     S
Al372  O1089   1.665   .     S
Al372  O1103   1.673   .     S
Al372  O1108   1.674   .     S
Al372  O1126   1.664   .     S
Al373  O1092   1.670   .     S
Al373  O1097   1.671   .     S
Al373  O1114   1.673   .     S
Al373  O1121   1.662   .     S
Al374  O1093   1.671   .     S
Al374  O1100   1.672   .     S
Al374  O1112   1.669   .     S
Al374  O1124   1.674   .     S
Al375  O1095   1.664   .     S
Al375  O1104   1.669   .     S
Al375  O1115   1.673   .     S
Al375  O1128   1.668   .     S
Al376  O1096   1.670   .     S
Al376  O1099   1.669   .     S
Al376  O1119   1.675   .     S
Al376  O1127   1.667   .     S
Al377  O1107   1.675   .     S
Al377  O1129   1.677   .     S
Al377  O1136   1.673   .     S
Al377  O1145   1.666   .     S
Al378  O1109   1.667   .     S
Al378  O1138   1.668   .     S
Al378  O1142   1.665   .     S
Al378  O1146   1.672   .     S
Al379  O1110   1.669   .     S
Al379  O1131   1.669   .     S
Al379  O1133   1.671   .     S
Al379  O1149   1.670   .     S
Al380  O1118   1.658   .     S
Al380  O1137   1.677   .     S
Al380  O1140   1.674   .     S
Al380  O1150   1.664   .     S
Al381  O1117   1.665   .     S
Al381  O1132   1.668   .     S
Al381  O1134   1.670   .     S
Al381  O1148   1.673   .     S
Al382  O1120   1.670   .     S
Al382  O1130   1.668   .     S
Al382  O1135   1.670   .     S
Al382  O1152   1.670   .     S
Al383  O1113   1.672   .     S
Al383  O1139   1.673   .     S
Al383  O1144   1.679   .     S
Al383  O1151   1.661   .     S
Al384  O1116   1.672   .     S
Al384  O1141   1.671   .     S
Al384  O1143   1.666   .     S
Al384  O1147   1.676   .     S
O385   Si293   1.611   1_455 S
O386   Si298   1.614   1_455 S
O387   Si296   1.616   1_455 S
O388   Si301   1.613   1_455 S
O389   Si302   1.612   1_455 S
O390   Si300   1.616   1_455 S
O391   Si303   1.611   1_455 S
O392   Si304   1.612   1_455 S
O434   Si25    1.612   1_545 S
O436   Si32    1.612   1_554 S
O437   Si30    1.609   1_565 S
O440   Si39    1.608   1_554 S
O441   Si31    1.609   1_545 S
O442   Si26    1.613   1_565 S
O446   Si40    1.611   1_556 S
O447   Si38    1.610   1_556 S
O491   Si57    1.609   1_554 S
O495   Si69    1.609   1_556 S
O496   Si61    1.609   1_556 S
O497   Si66    1.610   1_554 S
O521   Si89    1.610   1_556 S
O531   Si90    1.613   1_554 S
O534   Si98    1.610   1_556 S
O535   Si102   1.610   1_554 S
O561   Si120   1.611   1_565 S
O564   Si125   1.613   1_545 S
O565   Si128   1.612   1_565 S
O568   Si126   1.610   1_545 S
O658   Si178   1.614   1_545 S
O660   Si186   1.612   1_554 S
O663   Si179   1.612   1_545 S
O665   Si188   1.612   1_554 S
O667   Si191   1.607   1_556 S
O670   Si182   1.610   1_565 S
O671   Si192   1.609   1_556 S
O672   Si184   1.609   1_565 S
O719   Si221   1.611   1_554 S
O722   Si216   1.610   1_554 S
O724   Si218   1.607   1_556 S
O728   Si224   1.610   1_556 S
O753   Si252   1.611   1_556 S
O756   Si251   1.611   1_556 S
O758   Si248   1.612   1_554 S
O760   Si255   1.614   1_554 S
O787   Si274   1.618   1_545 S
O789   Si277   1.612   1_545 S
O790   Si279   1.611   1_565 S
O791   Si278   1.608   1_565 S
O825   Si5     1.612   1_655 S
O826   Si10    1.615   1_655 S
O827   Si12    1.613   1_655 S
O828   Si11    1.614   1_655 S
O829   Si13    1.611   1_655 S
O830   Si14    1.610   1_655 S
O831   Si15    1.612   1_655 S
O832   Si16    1.611   1_655 S
O833   Si289   1.609   1_455 S
O834   Si290   1.606   1_455 S
O835   Si291   1.609   1_455 S
O836   Si292   1.607   1_455 S
O837   Si295   1.603   1_455 S
O838   Si297   1.605   1_455 S
O839   Si294   1.606   1_455 S
O840   Si299   1.603   1_455 S
O878   Si67    1.606   1_565 S
O879   Si63    1.609   1_545 S
O880   Si59    1.606   1_565 S
O881   Si68    1.607   1_545 S
O911   Si97    1.605   1_565 S
O912   Si92    1.602   1_565 S
O915   Si93    1.604   1_545 S
O916   Si100   1.603   1_545 S
O946   Si114   1.604   1_554 S
O947   Si118   1.602   1_556 S
O949   Si115   1.604   1_554 S
O963   Si113   1.604   1_556 S
O1033  Si210   1.611   1_545 S
O1037  Si214   1.607   1_545 S
O1038  Si220   1.606   1_565 S
O1043  Si222   1.606   1_565 S
O1069  Si242   1.604   1_565 S
O1071  Si244   1.603   1_565 S
O1075  Si256   1.603   1_545 S
O1076  Si249   1.608   1_545 S
O1105  Si265   1.603   1_554 S
O1114  Si270   1.604   1_556 S
O1115  Si268   1.607   1_554 S
O1119  Si271   1.605   1_556 S
O1145  Si1     1.604   1_655 S
O1146  Si2     1.602   1_655 S
O1147  Si4     1.605   1_655 S
O1148  Si6     1.604   1_655 S
O1149  Si8     1.601   1_655 S
O1150  Si3     1.601   1_655 S
O1151  Si7     1.601   1_655 S
O1152  Si9     1.603   1_655 S
